
     RDKit          2D

 33 34  0  0  0  0  0  0  0  0999 V2000
   -1.2208    1.1208    0.0000 C   0  0  0  0  0  0  0  0  0  0  0  0
    0.3375    1.1208    0.0000 C   0  0  0  0  0  0  0  0  0  0  0  0
   -0.4458    0.6708    0.0000 C   0  0  0  0  0  0  0  0  0  0  0  0
   -1.2208    2.0208    0.0000 C   0  0  0  0  0  0  0  0  0  0  0  0
    0.3375    2.0208    0.0000 C   0  0  0  0  0  0  0  0  0  0  0  0
   -0.4458    2.4708    0.0000 N   0  0  0  0  0  0  0  0  0  0  0  0
    1.1250    0.6708    0.0000 C   0  0  0  0  0  0  0  0  0  0  0  0
   -2.0000    0.6708    0.0000 C   0  0  0  0  0  0  0  0  0  0  0  0
   -0.4458   -0.6375    0.0000 C   0  0  0  0  0  0  0  0  0  0  0  0
    1.1292   -0.6542    0.0000 C   0  0  0  0  0  0  0  0  0  0  0  0
    2.6917   -0.6792    0.0000 C   0  0  0  0  0  0  0  0  0  0  0  0
    1.9042   -1.1125    0.0000 C   0  0  0  0  0  0  0  0  0  0  0  0
    0.3375   -1.0875    0.0000 C   0  0  0  0  0  0  0  0  0  0  0  0
    3.4625   -1.1417    0.0000 O   0  0  0  0  0  0  0  0  0  0  0  0
    1.1250   -0.1667    0.0000 O   0  0  0  0  0  0  0  0  0  0  0  0
   -2.0000   -0.2375    0.0000 O   0  0  0  0  0  0  0  0  0  0  0  0
    2.7042    0.1958    0.0000 O   0  0  0  0  0  0  0  0  0  0  0  0
    3.4542   -2.0417    0.0000 C   0  0  0  0  0  0  0  0  0  0  0  0
   -2.7958    1.1208    0.0000 O   0  0  0  0  0  0  0  0  0  0  0  0
    1.9042    1.1208    0.0000 O   0  0  0  0  0  0  0  0  0  0  0  0
    1.1250    2.4708    0.0000 C   0  0  0  0  0  0  0  0  0  0  0  0
   -2.0000    2.4833    0.0000 C   0  0  0  0  0  0  0  0  0  0  0  0
   -1.2208   -1.0875    0.0000 C   0  0  0  0  0  0  0  0  0  0  0  0
    0.3375   -1.9917    0.0000 C   0  0  0  0  0  0  0  0  0  0  0  0
    2.6625   -2.4792    0.0000 C   0  0  0  0  0  0  0  0  0  0  0  0
    4.1792   -2.5667    0.0000 C   0  0  0  0  0  0  0  0  0  0  0  0
    4.3417   -2.1375    0.0000 C   0  0  0  0  0  0  0  0  0  0  0  0
    2.6792    0.6708    0.0000 C   0  0  0  0  0  0  0  0  0  0  0  0
   -3.5708    0.6708    0.0000 C   0  0  0  0  0  0  0  0  0  0  0  0
   -1.2208   -1.9917    0.0000 C   0  0  0  0  0  0  0  0  0  0  0  0
   -4.3458    1.1208    0.0000 C   0  0  0  0  0  0  0  0  0  0  0  0
    3.4667    1.1208    0.0000 C   0  0  0  0  0  0  0  0  0  0  0  0
   -0.4458   -2.4417    0.0000 C   0  0  0  0  0  0  0  0  0  0  0  0
  2  3  1  0
  3  1  1  0
  4  1  2  0
  5  6  1  0
  6  4  1  0
  7  2  1  0
  8  1  1  0
  9  3  1  0
 10 13  1  0
 11 12  1  0
 12 10  2  0
 13  9  1  0
 14 11  1  0
 15  7  2  0
 16  8  2  0
 17 11  2  0
 18 14  1  0
 19  8  1  0
 20  7  1  0
 21  5  1  0
 22  4  1  0
 23  9  2  0
 24 13  2  0
 25 18  1  0
 26 18  1  0
 27 18  1  0
 28 20  1  0
 29 19  1  0
 30 23  1  0
 31 29  1  0
 32 28  1  0
 33 30  2  0
  2  5  2  0
 24 33  1  0
M  END
> <chembl_id>
CHEMBL460291

> <chembl_pref_name>
LACIDIPINE

$$$$

     RDKit          2D

 43 47  0  0  0  0  0  0  0  0999 V2000
   -0.7375    0.7208    0.0000 C   0  0  0  0  0  0  0  0  0  0  0  0
   -1.9375    0.7208    0.0000 C   0  0  0  0  0  0  0  0  0  0  0  0
   -0.7375    1.4125    0.0000 C   0  0  0  0  0  0  0  0  0  0  0  0
   -1.3375    0.3500    0.0000 C   0  0  0  0  0  0  0  0  0  0  0  0
   -1.9375    1.4125    0.0000 C   0  0  0  0  0  0  0  0  0  0  0  0
   -0.1208    0.3500    0.0000 C   0  0  0  0  0  0  0  0  0  0  0  0
   -1.3375    1.7583    0.0000 N   0  0  0  0  0  0  0  0  0  0  0  0
   -2.5458    0.3500    0.0000 C   0  0  0  0  0  0  0  0  0  0  0  0
    2.0417    0.1583    0.0000 N   0  0  0  0  0  0  0  0  0  0  0  0
   -0.1208   -1.7042    0.0000 N   0  0  0  0  0  0  0  0  0  0  0  0
   -1.3375   -0.3375    0.0000 C   0  0  0  0  0  0  0  0  0  0  0  0
    1.0875    0.3750    0.0000 C   0  0  0  0  0  0  0  0  0  0  0  0
    0.4750    0.7208    0.0000 O   0  0  0  0  0  0  0  0  0  0  0  0
   -0.7375   -1.3792    0.0000 C   0  0  0  0  0  0  0  0  0  0  0  0
    2.7250   -0.0292    0.0000 C   0  0  0  0  0  0  0  0  0  0  0  0
    1.6875    0.7333    0.0000 C   0  0  0  0  0  0  0  0  0  0  0  0
    1.4417   -0.2000    0.0000 C   0  0  0  0  0  0  0  0  0  0  0  0
   -0.7375   -0.6792    0.0000 C   0  0  0  0  0  0  0  0  0  0  0  0
   -3.1458    0.7208    0.0000 O   0  0  0  0  0  0  0  0  0  0  0  0
   -0.1208   -2.4042    0.0000 O   0  0  0  0  0  0  0  0  0  0  0  0
    0.4750   -1.3542    0.0000 O   0  0  0  0  0  0  0  0  0  0  0  0
   -2.5458   -0.3375    0.0000 O   0  0  0  0  0  0  0  0  0  0  0  0
   -0.1208   -0.3375    0.0000 O   0  0  0  0  0  0  0  0  0  0  0  0
   -0.1208    1.7708    0.0000 N   0  0  0  0  0  0  0  0  0  0  0  0
    2.9167   -0.6917    0.0000 C   0  0  0  0  0  0  0  0  0  0  0  0
    3.2167    0.4833    0.0000 C   0  0  0  0  0  0  0  0  0  0  0  0
   -2.5458    1.7708    0.0000 C   0  0  0  0  0  0  0  0  0  0  0  0
   -1.9375   -0.6792    0.0000 C   0  0  0  0  0  0  0  0  0  0  0  0
   -3.7458    0.3500    0.0000 C   0  0  0  0  0  0  0  0  0  0  0  0
   -1.3375   -1.7042    0.0000 C   0  0  0  0  0  0  0  0  0  0  0  0
   -1.9375   -1.3792    0.0000 C   0  0  0  0  0  0  0  0  0  0  0  0
    2.4292   -1.1792    0.0000 C   0  0  0  0  0  0  0  0  0  0  0  0
    3.5917   -0.8625    0.0000 C   0  0  0  0  0  0  0  0  0  0  0  0
    3.8792    0.3375    0.0000 C   0  0  0  0  0  0  0  0  0  0  0  0
    3.0042    1.1333    0.0000 C   0  0  0  0  0  0  0  0  0  0  0  0
   -4.3458    0.7208    0.0000 C   0  0  0  0  0  0  0  0  0  0  0  0
   -3.7458   -0.3375    0.0000 C   0  0  0  0  0  0  0  0  0  0  0  0
    2.6542   -1.8542    0.0000 C   0  0  0  0  0  0  0  0  0  0  0  0
    3.7792   -1.5167    0.0000 C   0  0  0  0  0  0  0  0  0  0  0  0
    4.3417    0.8250    0.0000 C   0  0  0  0  0  0  0  0  0  0  0  0
    3.4542    1.6208    0.0000 C   0  0  0  0  0  0  0  0  0  0  0  0
    3.3000   -2.0125    0.0000 C   0  0  0  0  0  0  0  0  0  0  0  0
    4.1417    1.4875    0.0000 C   0  0  0  0  0  0  0  0  0  0  0  0
  2  4  1  0
  3  1  2  0
  4  1  1  0
  5  2  2  0
  6  1  1  0
  7  3  1  0
  8  2  1  0
  9 17  1  0
 10 14  1  0
 11  4  1  0
 12 13  1  0
 13  6  1  0
 14 18  2  0
 15  9  1  0
 16 12  1  0
 17 12  1  0
 18 11  1  0
 19  8  1  0
 20 10  1  0
 21 10  2  0
 22  8  2  0
 23  6  2  0
 24  3  1  0
 25 15  1  0
 26 15  1  0
 27  5  1  0
 28 11  2  0
 29 19  1  0
 30 31  2  0
 31 28  1  0
 32 25  1  0
 33 25  2  0
 34 26  2  0
 35 26  1  0
 36 29  1  0
 37 29  1  0
 38 32  2  0
 39 33  1  0
 40 34  1  0
 41 35  2  0
 42 39  2  0
 43 41  1  0
  7  5  1  0
 16  9  1  0
 14 30  1  0
 40 43  2  0
 38 42  1  0
M  CHG  2  10   1  20  -1
M  END
> <chembl_id>
CHEMBL1275868

> <chembl_pref_name>
AZELNIDIPINE

$$$$

     RDKit          2D

 10  9  0  0  0  0  0  0  0  0999 V2000
    1.4042   -4.4042    0.0000 C   0  0  0  0  0  0  0  0  0  0  0  0
    0.7917   -4.0542    0.0000 O   0  0  0  0  0  0  0  0  0  0  0  0
    0.1792   -4.4042    0.0000 C   0  0  0  0  0  0  0  0  0  0  0  0
    2.0167   -4.0542    0.0000 C   0  0  0  0  0  0  0  0  0  0  0  0
    1.0500   -5.0125    0.0000 F   0  0  0  0  0  0  0  0  0  0  0  0
    1.7542   -5.0167    0.0000 F   0  0  0  0  0  0  0  0  0  0  0  0
    0.1792   -5.1167    0.0000 F   0  0  0  0  0  0  0  0  0  0  0  0
   -0.4333   -4.0542    0.0000 F   0  0  0  0  0  0  0  0  0  0  0  0
    2.6292   -4.4042    0.0000 F   0  0  0  0  0  0  0  0  0  0  0  0
    2.0167   -3.3417    0.0000 Cl  0  0  0  0  0  0  0  0  0  0  0  0
  2  1  1  0
  3  2  1  0
  4  1  1  0
  5  1  1  0
  6  1  1  0
  7  3  1  0
  8  3  1  0
  9  4  1  0
 10  4  1  0
M  END
> <chembl_id>
CHEMBL1257

> <chembl_pref_name>
ENFLURANE

$$$$

     RDKit          2D

  8  7  0  0  0  0  0  0  0  0999 V2000
   -4.0702    0.5346    0.0000 O   0  0  0  0  0  0  0  0  0  0  0  0
   -3.3557    0.9471    0.0000 C   0  0  0  0  0  0  0  0  0  0  0  0
   -3.3557    1.7721    0.0000 O   0  0  0  0  0  0  0  0  0  0  0  0
   -2.6413    0.5346    0.0000 C   0  0  0  0  0  0  0  0  0  0  0  0
   -2.2288    1.2490    0.0000 C   0  0  0  0  0  0  0  0  0  0  0  0
   -1.4038    1.2490    0.0000 O   0  0  0  0  0  0  0  0  0  0  0  0
   -1.9268    0.1221    0.0000 N   0  0  0  0  0  0  0  0  0  0  0  0
   -3.0538   -0.1799    0.0000 H   0  0  0  0  0  0  0  0  0  0  0  0
  1  2  1  0
  2  3  2  0
  2  4  1  0
  4  5  1  0
  5  6  1  0
  4  7  1  1
  4  8  1  0
M  ISO  1   8   2
M  END
> <chembl_id>
CHEMBL4650463

> <chembl_pref_name>
DEUTARSERINE

$$$$

     RDKit          2D

  2  0  0  0  0  0  0  0  0  0999 V2000
    4.2042   -6.3125    0.0000 Na  0  0  0  0  0 15  0  0  0  0  0  0
    5.2292   -6.3125    0.0000 Cl  0  0  0  0  0  0  0  0  0  0  0  0
M  CHG  2   1   1   2  -1
M  END
> <chembl_id>
CHEMBL1200574

> <chembl_pref_name>
SODIUM CHLORIDE

$$$$

     RDKit          2D

 14 15  0  0  0  0  0  0  0  0999 V2000
   16.2958  -24.6917    0.0000 C   0  0  0  0  0  0  0  0  0  0  0  0
   15.8125  -25.3583    0.0000 N   0  0  0  0  0  0  0  0  0  0  0  0
   15.8125  -24.0250    0.0000 N   0  0  0  0  0  0  0  0  0  0  0  0
   17.1208  -24.6875    0.0000 N   0  0  0  0  0  0  0  0  0  0  0  0
   17.5292  -23.9708    0.0000 C   0  0  0  0  0  0  0  0  0  0  0  0
   15.0250  -25.1042    0.0000 C   0  0  0  0  0  0  0  0  0  0  0  0
   15.0250  -24.2792    0.0000 C   0  0  0  0  0  0  0  0  0  0  0  0
   17.1167  -23.2583    0.0000 O   0  0  0  0  0  0  0  0  0  0  0  0
   18.3542  -23.9708    0.0000 O   0  0  0  0  0  0  0  0  0  0  0  0
   14.3125  -25.5208    0.0000 C   0  0  0  0  0  0  0  0  0  0  0  0
   14.3083  -23.8708    0.0000 C   0  0  0  0  0  0  0  0  0  0  0  0
   18.7667  -24.6833    0.0000 C   0  0  0  0  0  0  0  0  0  0  0  0
   13.5958  -24.2833    0.0000 C   0  0  0  0  0  0  0  0  0  0  0  0
   13.5958  -25.1083    0.0000 C   0  0  0  0  0  0  0  0  0  0  0  0
  2  1  2  0
  3  1  1  0
  4  1  1  0
  5  4  1  0
  6  2  1  0
  7  3  1  0
  8  5  2  0
  9  5  1  0
 10  6  2  0
 11  7  2  0
 12  9  1  0
 13 11  1  0
 14 10  1  0
  6  7  1  0
 14 13  2  0
M  END
> <chembl_id>
CHEMBL70971

> <chembl_pref_name>
CARBENDAZIM

$$$$

     RDKit          2D

 29 33  0  0  1  0  0  0  0  0999 V2000
   30.2299   -6.9280    0.0000 N   0  0  0  0  0  0  0  0  0  0  0  0
   32.9344   -6.9129    0.0000 C   0  0  0  0  0  0  0  0  0  0  0  0
   30.2299   -8.4791    0.0000 C   0  0  0  0  0  0  0  0  0  0  0  0
   32.9344   -8.4540    0.0000 C   0  0  0  0  0  0  0  0  0  0  0  0
   31.5695   -6.1574    0.0000 C   0  0  0  0  0  0  0  0  0  0  0  0
   27.6714   -8.4540    0.0000 C   0  0  0  0  0  0  0  0  0  0  0  0
   27.6563   -6.8373    0.0000 C   0  0  0  0  0  0  0  0  0  0  0  0
   31.5544   -9.2396    0.0000 C   0  0  0  0  0  0  0  0  0  0  0  0
   26.1203   -9.1792    0.0000 N   0  0  0  0  0  0  0  0  0  0  0  0
   34.2791   -9.2396    0.0000 C   0  0  0  0  0  0  0  0  0  0  0  0
   28.9154   -5.9157    0.0000 C   0  0  0  0  0  0  0  0  0  0  0  0
   26.2865   -5.9610    0.0000 C   0  0  0  0  0  0  0  0  0  0  0  0
   35.6238   -8.4540    0.0000 C   0  0  0  0  0  0  0  0  0  0  0  0
   24.7705   -6.9582    0.0000 C   0  0  0  0  0  0  0  0  0  0  0  0
   24.7705   -8.3784    0.0000 C   0  0  0  0  0  0  0  0  0  0  0  0
   34.2640   -6.1423    0.0000 C   0  0  0  0  0  0  0  0  0  0  0  0
   35.6238   -6.9129    0.0000 O   0  0  0  0  0  0  0  0  0  0  0  0
   31.5695   -4.6112    0.0000 O   0  0  0  0  0  0  0  0  0  0  0  0
   23.2798   -6.0366    0.0000 C   0  0  0  0  0  0  0  0  0  0  0  0
   36.9836   -9.2396    0.0000 O   0  0  0  0  0  0  0  0  0  0  0  0
   23.2798   -9.1339    0.0000 C   0  0  0  0  0  0  0  0  0  0  0  0
   35.2612  -10.4584    0.0000 O   0  0  0  0  0  0  0  0  0  0  0  0
   21.9300   -6.7920    0.0000 C   0  0  0  0  0  0  0  0  0  0  0  0
   33.2517  -10.4584    0.0000 C   0  0  0  0  0  0  0  0  0  0  0  0
   21.9300   -8.3280    0.0000 C   0  0  0  0  0  0  0  0  0  0  0  0
   26.2865   -4.4601    0.0000 C   0  0  0  0  0  0  0  0  0  0  0  0
   20.7364   -5.9912    0.0000 O   0  0  0  0  0  0  0  0  0  0  0  0
   33.8107  -11.9290    0.0000 C   0  0  0  0  0  0  0  0  0  0  0  0
   27.4801   -3.4630    0.0000 C   0  0  0  0  0  0  0  0  0  0  0  0
  2  5  1  0
  3  1  1  0
  4  2  2  0
  5  1  1  0
  6  3  1  0
  7 11  1  0
  8  3  2  0
  9  6  1  0
 10  4  1  0
 11  1  1  0
 12  7  1  0
 13 17  1  0
 14 12  2  0
 15  9  2  0
 16  2  1  0
 17 16  1  0
 18  5  2  0
 19 14  1  0
 20 13  2  0
 21 15  1  0
 10 22  1  1
 23 19  2  0
 10 24  1  6
 25 21  2  0
 26 12  1  0
 27 23  1  0
 28 24  1  0
 29 26  1  0
  7  6  2  0
  8  4  1  0
 14 15  1  0
 13 10  1  0
 23 25  1  0
M  END
> <chembl_id>
CHEMBL837

> <chembl_pref_name>
7-ETHYL-10-HYDROXYCAMPTOTHECIN

$$$$

     RDKit          2D

 27 31  0  0  0  0  0  0  0  0999 V2000
   16.7310  -30.2286    0.0000 C   0  0  0  0  0  0  0  0  0  0  0  0
   15.9173  -30.3644    0.0000 C   0  0  0  0  0  0  0  0  0  0  0  0
   15.3847  -29.7214    0.0000 C   0  0  0  0  0  0  0  0  0  0  0  0
   14.6804  -29.3060    0.0000 C   0  0  0  0  0  0  0  0  0  0  0  0
   14.6921  -28.4810    0.0000 C   0  0  0  0  0  0  0  0  0  0  0  0
   15.4090  -28.0766    0.0000 C   0  0  0  0  0  0  0  0  0  0  0  0
   16.1190  -28.4968    0.0000 O   0  0  0  0  0  0  0  0  0  0  0  0
   16.1120  -29.3214    0.0000 C   0  0  0  0  0  0  0  0  0  0  0  0
   16.8219  -29.7415    0.0000 O   0  0  0  0  0  0  0  0  0  0  0  0
   13.9822  -28.0608    0.0000 C   0  0  0  0  0  0  0  0  0  0  0  0
   13.9891  -27.2362    0.0000 O   0  0  0  0  0  0  0  0  0  0  0  0
   13.2605  -28.4657    0.0000 N   0  0  0  0  0  0  0  0  0  0  0  0
   12.4808  -28.2016    0.0000 C   0  0  0  0  0  0  0  0  0  0  0  0
   11.9867  -28.8623    0.0000 C   0  0  0  0  0  0  0  0  0  0  0  0
   12.4665  -29.5365    0.0000 C   0  0  0  0  0  0  0  0  0  0  0  0
   13.2534  -29.2902    0.0000 C   0  0  0  0  0  0  0  0  0  0  0  0
   13.9633  -29.7103    0.0000 C   0  0  0  0  0  0  0  0  0  0  0  0
   12.1204  -30.2881    0.0000 N   0  0  0  0  0  0  0  0  0  0  0  0
   11.2990  -30.3650    0.0000 C   0  0  0  0  0  0  0  0  0  0  0  0
   10.9570  -31.1115    0.0000 C   0  0  0  0  0  0  0  0  0  0  0  0
   10.1356  -31.1886    0.0000 C   0  0  0  0  0  0  0  0  0  0  0  0
    9.6563  -30.5190    0.0000 C   0  0  0  0  0  0  0  0  0  0  0  0
   10.0024  -29.7674    0.0000 C   0  0  0  0  0  0  0  0  0  0  0  0
   10.8238  -29.6905    0.0000 C   0  0  0  0  0  0  0  0  0  0  0  0
   11.1653  -28.9392    0.0000 C   0  0  0  0  0  0  0  0  0  0  0  0
    8.8349  -30.5960    0.0000 O   0  0  0  0  0  0  0  0  0  0  0  0
   14.8608  -30.3589    0.0000 O   0  0  0  0  0  0  0  0  0  0  0  0
  1  2  1  0
  3  2  1  6
  3  4  1  0
  4  5  2  0
  5  6  1  0
  6  7  1  0
  7  8  1  0
  3  8  1  0
  8  9  2  0
  5 10  1  0
 10 11  2  0
 10 12  1  0
 12 13  1  0
 13 14  1  0
 14 15  2  0
 15 16  1  0
 12 16  1  0
 16 17  2  0
  4 17  1  0
 15 18  1  0
 18 19  2  0
 19 20  1  0
 20 21  2  0
 21 22  1  0
 22 23  2  0
 23 24  1  0
 19 24  1  0
 24 25  2  0
 14 25  1  0
 22 26  1  0
  3 27  1  0
M  END
> <chembl_id>
CHEMBL273862

> <chembl_pref_name>
HYDROXYCAMPTOTHECIN

$$$$

     RDKit          2D

 28 32  0  0  1  0  0  0  0  0999 V2000
   -1.3125   -1.4792    0.0000 C   0  0  0  0  0  0  0  0  0  0  0  0
    1.5750    0.0875    0.0000 C   0  0  0  0  0  0  0  0  0  0  0  0
   -1.3125   -2.6000    0.0000 C   0  0  0  0  0  0  0  0  0  0  0  0
    2.8042    0.3958    0.0000 C   0  0  0  0  0  0  0  0  0  0  0  0
    0.6000   -1.5000    0.0000 C   0  0  0  0  0  0  0  0  0  0  0  0
   -0.3458   -0.9417    0.0000 C   0  0  0  0  0  0  0  0  0  0  0  0
    1.5542   -0.9792    0.0000 C   0  0  0  0  0  0  0  0  0  0  0  0
    0.5625   -2.6542    0.0000 C   0  0  0  0  0  0  0  0  0  0  0  0
    2.4292    1.6333    0.0000 O   0  0  0  0  0  0  0  0  0  0  0  0
   -0.3708   -3.1875    0.0000 C   0  0  0  0  0  0  0  0  0  0  0  0
   -2.2833   -3.1375    0.0000 C   0  0  0  0  0  0  0  0  0  0  0  0
    0.6292    0.6708    0.0000 C   0  0  0  0  0  0  0  0  0  0  0  0
    3.4042    2.2250    0.0000 C   0  0  0  0  0  0  0  0  0  0  0  0
   -0.3000    0.1583    0.0000 C   0  0  0  0  0  0  0  0  0  0  0  0
   -2.2375   -0.9000    0.0000 C   0  0  0  0  0  0  0  0  0  0  0  0
    2.5917   -1.3792    0.0000 C   0  0  0  0  0  0  0  0  0  0  0  0
    3.4167   -0.5750    0.0000 C   0  0  0  0  0  0  0  0  0  0  0  0
   -3.2458   -2.5667    0.0000 C   0  0  0  0  0  0  0  0  0  0  0  0
    4.2167    0.6208    0.0000 C   0  0  0  0  0  0  0  0  0  0  0  0
    3.4042    3.1708    0.0000 O   0  0  0  0  0  0  0  0  0  0  0  0
   -4.2083   -3.0917    0.0000 O   0  0  0  0  0  0  0  0  0  0  0  0
    4.3417    1.5625    0.0000 C   0  0  0  0  0  0  0  0  0  0  0  0
   -3.2208   -1.4167    0.0000 C   0  0  0  0  0  0  0  0  0  0  0  0
   -1.3125   -0.3417    0.0000 C   0  0  0  0  0  0  0  0  0  0  0  0
    1.5625    1.2458    0.0000 C   0  0  0  0  0  0  0  0  0  0  0  0
    1.5167   -2.0500    0.0000 H   0  0  0  0  0  0  0  0  0  0  0  0
    0.6292   -0.2792    0.0000 H   0  0  0  0  0  0  0  0  0  0  0  0
   -0.3833   -2.0667    0.0000 H   0  0  0  0  0  0  0  0  0  0  0  0
  2 12  1  0
  3  1  1  0
  4  2  1  0
  5  6  1  0
  6  1  1  0
  7  5  1  0
  8  5  1  0
  4  9  1  1
 10  3  1  0
 11  3  2  0
 12 14  1  0
 13  9  1  0
 14  6  1  0
 15  1  1  0
 16  7  1  0
 17 16  1  0
 18 23  1  0
 19  4  1  0
 20 13  2  0
 21 18  2  0
 22 19  1  0
 23 15  1  0
  1 24  1  1
  2 25  1  1
  7 26  1  6
  5 27  1  1
  6 28  1  6
 10  8  2  0
 11 18  1  0
  2  7  1  0
  4 17  1  0
 13 22  1  0
M  END
> <chembl_id>
CHEMBL1463345

> <chembl_pref_name>
CANRENONE

$$$$

     RDKit          2D

 11 12  0  0  0  0  0  0  0  0999 V2000
  -19.8221  -14.2607    0.0000 C   0  0  0  0  0  0  0  0  0  0  0  0
  -19.8221  -13.4357    0.0000 C   0  0  0  0  0  0  0  0  0  0  0  0
  -20.5366  -13.0232    0.0000 C   0  0  0  0  0  0  0  0  0  0  0  0
  -21.2511  -13.4357    0.0000 C   0  0  0  0  0  0  0  0  0  0  0  0
  -21.2511  -14.2607    0.0000 C   0  0  0  0  0  0  0  0  0  0  0  0
  -20.5366  -14.6732    0.0000 C   0  0  0  0  0  0  0  0  0  0  0  0
  -19.0375  -14.5157    0.0000 C   0  0  0  0  0  0  0  0  0  0  0  0
  -18.5526  -13.8482    0.0000 O   0  0  0  0  0  0  0  0  0  0  0  0
  -19.0375  -13.1808    0.0000 B   0  0  0  0  0  0  0  0  0  0  0  0
  -18.7825  -12.3962    0.0000 O   0  0  0  0  0  0  0  0  0  0  0  0
  -21.9656  -14.6732    0.0000 F   0  0  0  0  0  0  0  0  0  0  0  0
  6  1  1  0
  2  3  1  0
  3  4  2  0
  4  5  1  0
  5  6  2  0
  2  9  1  0
  2  1  2  0
  1  7  1  0
  7  8  1  0
  8  9  1  0
  9 10  1  0
  5 11  1  0
M  END
> <chembl_id>
CHEMBL443052

> <chembl_pref_name>
TAVABOROLE

$$$$

     RDKit          2D

 13 13  0  0  1  0  0  0  0  0999 V2000
    2.1250   -5.3750    0.0000 C   0  0  0  0  0  0  0  0  0  0  0  0
    1.5083   -5.0167    0.0000 C   0  0  0  0  0  0  0  0  0  0  0  0
    2.1250   -6.0792    0.0000 O   0  0  0  0  0  0  0  0  0  0  0  0
    1.5083   -4.3125    0.0000 C   0  0  0  0  0  0  0  0  0  0  0  0
    2.1250   -3.9542    0.0000 C   0  0  0  0  0  0  0  0  0  0  0  0
    0.9000   -5.3750    0.0000 N   0  0  0  0  0  0  0  0  0  0  0  0
    2.7375   -5.0167    0.0000 O   0  0  0  0  0  0  0  0  0  0  0  0
    3.3500   -3.2500    0.0000 C   0  0  0  0  0  0  0  0  0  0  0  0
    2.1250   -3.2500    0.0000 C   0  0  0  0  0  0  0  0  0  0  0  0
    2.7375   -4.3125    0.0000 C   0  0  0  0  0  0  0  0  0  0  0  0
    3.3500   -3.9542    0.0000 C   0  0  0  0  0  0  0  0  0  0  0  0
    2.7375   -2.8917    0.0000 C   0  0  0  0  0  0  0  0  0  0  0  0
    3.9667   -2.8917    0.0000 O   0  0  0  0  0  0  0  0  0  0  0  0
  2  1  1  0
  3  1  2  0
  2  4  1  1
  5  4  1  0
  6  2  1  0
  7  1  1  0
  8 11  2  0
  9  5  1  0
 10  5  2  0
 11 10  1  0
 12  9  2  0
 13  8  1  0
  8 12  1  0
M  END
> <chembl_id>
CHEMBL925

> <chembl_pref_name>
TYROSINE

$$$$

     RDKit          2D

 12 12  0  0  0  0  0  0  0  0999 V2000
    2.1292   -0.4667    0.0000 C   0  0  0  0  0  0  0  0  0  0  0  0
   -2.3833   -0.5000    0.0000 C   0  0  0  0  0  0  0  0  0  0  0  0
    0.6125   -0.4792    0.0000 C   0  0  0  0  0  0  0  0  0  0  0  0
   -0.1083   -1.7917    0.0000 C   0  0  0  0  0  0  0  0  0  0  0  0
   -0.1208    0.8000    0.0000 C   0  0  0  0  0  0  0  0  0  0  0  0
   -1.6208   -1.8000    0.0000 C   0  0  0  0  0  0  0  0  0  0  0  0
   -1.6458    0.7875    0.0000 C   0  0  0  0  0  0  0  0  0  0  0  0
    2.5000    0.9833    0.0000 O   0  0  0  0  0  0  0  0  0  0  0  0
   -3.5458    0.4458    0.0000 O   0  0  0  0  0  0  0  0  0  0  0  0
    2.0000   -1.9792    0.0000 C   0  0  0  0  0  0  0  0  0  0  0  0
    3.6167   -0.7250    0.0000 C   0  0  0  0  0  0  0  0  0  0  0  0
   -3.5375   -1.4792    0.0000 C   0  0  0  0  0  0  0  0  0  0  0  0
  2  7  1  0
  3  1  1  0
  4  3  1  0
  5  3  1  0
  6  4  1  0
  7  5  1  0
  8  1  1  0
  9  2  1  0
 10  1  1  0
 11  1  1  0
 12  2  1  0
  6  2  1  0
M  END
> <chembl_id>
CHEMBL1651998

> <chembl_pref_name>
TERPIN

$$$$

     RDKit          2D

 38 41  0  0  0  0  0  0  0  0999 V2000
   -6.1094    0.0043    0.0000 C   0  0  0  0  0  0  0  0  0  0  0  0
   -6.8239   -0.4082    0.0000 F   0  0  0  0  0  0  0  0  0  0  0  0
   -5.3950   -0.4082    0.0000 O   0  0  0  0  0  0  0  0  0  0  0  0
   -4.6805    0.0043    0.0000 C   0  0  0  0  0  0  0  0  0  0  0  0
   -3.9660   -1.2332    0.0000 O   0  0  0  0  0  0  0  0  0  0  0  0
   -3.9660   -0.4082    0.0000 C   0  0  0  0  0  0  0  0  0  0  0  0
   -3.2516    0.0043    0.0000 N   0  0  0  0  0  0  0  0  0  0  0  0
   -3.2516   -1.6457    0.0000 C   0  0  0  0  0  0  0  0  0  0  0  0
   -2.5371   -1.2332    0.0000 C   0  0  0  0  0  0  0  0  0  0  0  0
   -2.5371   -0.4082    0.0000 C   0  0  0  0  0  0  0  0  0  0  0  0
   -3.2516   -2.4707    0.0000 C   0  0  0  0  0  0  0  0  0  0  0  0
   -2.5371   -2.8832    0.0000 C   0  0  0  0  0  0  0  0  0  0  0  0
   -1.8226   -2.4707    0.0000 C   0  0  0  0  0  0  0  0  0  0  0  0
   -1.8226   -1.6457    0.0000 C   0  0  0  0  0  0  0  0  0  0  0  0
   -1.1082   -1.2332    0.0000 C   0  0  0  0  0  0  0  0  0  0  0  0
   -1.1082   -2.8832    0.0000 Cl  0  0  0  0  0  0  0  0  0  0  0  0
   -0.3937   -1.6457    0.0000 O   0  0  0  0  0  0  0  0  0  0  0  0
    0.3208   -1.2332    0.0000 C   0  0  0  0  0  0  0  0  0  0  0  0
    1.0352   -1.6457    0.0000 C   0  0  0  0  0  0  0  0  0  0  0  0
    1.0352    0.0043    0.0000 C   0  0  0  0  0  0  0  0  0  0  0  0
    0.3208   -0.4082    0.0000 C   0  0  0  0  0  0  0  0  0  0  0  0
    1.7497   -1.2332    0.0000 C   0  0  0  0  0  0  0  0  0  0  0  0
    1.7497   -0.4082    0.0000 C   0  0  0  0  0  0  0  0  0  0  0  0
   -0.3937    0.0043    0.0000 N   0  0  0  0  0  0  0  0  0  0  0  0
   -0.3938    0.8293    0.0000 C   0  0  0  0  0  0  0  0  0  0  0  0
    0.3207    1.2418    0.0000 C   0  0  0  0  0  0  0  0  0  0  0  0
    1.0352    0.8293    0.0000 C   0  0  0  0  0  0  0  0  0  0  0  0
    1.7497    1.2419    0.0000 C   0  0  0  0  0  0  0  0  0  0  0  0
    2.4642    0.8294    0.0000 N   0  0  0  0  0  0  0  0  0  0  0  0
    1.9212    2.0488    0.0000 N   0  0  0  0  0  0  0  0  0  0  0  0
    2.7417    2.1351    0.0000 N   0  0  0  0  0  0  0  0  0  0  0  0
    3.0772    1.3814    0.0000 C   0  0  0  0  0  0  0  0  0  0  0  0
   -6.1094    0.8293    0.0000 F   0  0  0  0  0  0  0  0  0  0  0  0
   -1.7185   -0.0463    0.0000 C   0  0  0  0  0  0  0  0  0  0  0  0
   -3.9660   -2.8832    0.0000 F   0  0  0  0  0  0  0  0  0  0  0  0
   -1.1082    1.2418    0.0000 C   0  0  0  0  0  0  0  0  0  0  0  0
    1.3692    2.6619    0.0000 C   0  0  0  0  0  0  0  0  0  0  0  0
   -2.3236    0.3887    0.0000 H   0  0  0  0  0  0  0  0  0  0  0  0
  1  2  1  0
  1  3  1  0
  5  6  2  0
  4  6  1  0
  4  3  1  0
  8  9  1  0
  9 10  1  0
  7 10  1  0
  7  6  1  0
 11 12  1  0
 12 13  2  0
 13 14  1  0
  9 14  2  0
  8 11  2  0
 15 17  1  0
 13 16  1  0
 15 14  1  0
 18 19  2  0
 18 17  1  0
 20 21  2  0
 22 23  2  0
 20 23  1  0
 21 18  1  0
 19 22  1  0
 24 25  2  0
 25 26  1  0
 26 27  2  0
 20 27  1  0
 21 24  1  0
 28 29  2  0
 28 27  1  0
 30 31  1  0
 31 32  2  0
 28 30  1  0
 29 32  1  0
  1 33  1  0
 10 34  1  1
 11 35  1  0
 25 36  1  0
 30 37  1  0
 10 38  1  0
M  END
> <chembl_id>
CHEMBL5095506

> <chembl_pref_name>
CRICTIBANT

$$$$

     RDKit          2D

 22 23  0  0  0  0  0  0  0  0999 V2000
    2.2111    1.0292    0.0000 C   0  0  0  0  0  0  0  0  0  0  0  0
    2.2099    0.2018    0.0000 C   0  0  0  0  0  0  0  0  0  0  0  0
    2.9247   -0.2110    0.0000 C   0  0  0  0  0  0  0  0  0  0  0  0
    3.6412    0.2023    0.0000 C   0  0  0  0  0  0  0  0  0  0  0  0
    3.6383    1.0328    0.0000 C   0  0  0  0  0  0  0  0  0  0  0  0
    2.9229    1.4420    0.0000 C   0  0  0  0  0  0  0  0  0  0  0  0
    4.3512    1.4480    0.0000 Cl  0  0  0  0  0  0  0  0  0  0  0  0
    1.4951   -0.2101    0.0000 C   0  0  0  0  0  0  0  0  0  0  0  0
    0.7810    0.2030    0.0000 O   0  0  0  0  0  0  0  0  0  0  0  0
    1.4945   -1.0351    0.0000 C   0  0  0  0  0  0  0  0  0  0  0  0
    0.7796   -1.4455    0.0000 C   0  0  0  0  0  0  0  0  0  0  0  0
    0.7786   -2.2697    0.0000 C   0  0  0  0  0  0  0  0  0  0  0  0
    1.4932   -2.6836    0.0000 C   0  0  0  0  0  0  0  0  0  0  0  0
    2.2104   -2.2672    0.0000 C   0  0  0  0  0  0  0  0  0  0  0  0
    2.2079   -1.4444    0.0000 C   0  0  0  0  0  0  0  0  0  0  0  0
    1.4937   -3.5086    0.0000 O   0  0  0  0  0  0  0  0  0  0  0  0
    0.7794   -3.9215    0.0000 C   0  0  0  0  0  0  0  0  0  0  0  0
    0.7799   -4.7465    0.0000 C   0  0  0  0  0  0  0  0  0  0  0  0
    0.0625   -3.5083    0.0000 C   0  0  0  0  0  0  0  0  0  0  0  0
    1.4917   -4.3333    0.0000 C   0  0  0  0  0  0  0  0  0  0  0  0
    0.0656   -5.1594    0.0000 O   0  0  0  0  0  0  0  0  0  0  0  0
    1.4946   -5.1586    0.0000 O   0  0  0  0  0  0  0  0  0  0  0  0
 13 14  1  0
  2  3  1  0
 14 15  2  0
 15 10  1  0
  5  7  1  0
 13 16  1  0
 16 17  1  0
  2  8  1  0
 17 18  1  0
  3  4  2  0
 17 19  1  0
  8  9  2  0
 17 20  1  0
  1  2  2  0
 18 21  2  0
  8 10  1  0
 18 22  1  0
  4  5  1  0
 10 11  2  0
 11 12  1  0
  5  6  2  0
 12 13  2  0
  6  1  1  0
M  END
> <chembl_id>
CHEMBL981

> <chembl_pref_name>
FENOFIBRIC ACID

$$$$

     RDKit          2D

 32 36  0  0  0  0  0  0  0  0999 V2000
    3.9904   -4.4079    0.0000 C   0  0  0  0  0  0  0  0  0  0  0  0
    4.7049   -4.8204    0.0000 N   0  0  0  0  0  0  0  0  0  0  0  0
    3.9904   -3.5829    0.0000 C   0  0  0  0  0  0  0  0  0  0  0  0
    3.2759   -3.1704    0.0000 C   0  0  0  0  0  0  0  0  0  0  0  0
    2.5615   -3.5829    0.0000 F   0  0  0  0  0  0  0  0  0  0  0  0
    3.2759   -2.3454    0.0000 C   0  0  0  0  0  0  0  0  0  0  0  0
    3.9904   -1.9329    0.0000 C   0  0  0  0  0  0  0  0  0  0  0  0
    4.7049   -2.3454    0.0000 C   0  0  0  0  0  0  0  0  0  0  0  0
    6.1338   -0.6954    0.0000 C   0  0  0  0  0  0  0  0  0  0  0  0
    5.4193   -1.1079    0.0000 C   0  0  0  0  0  0  0  0  0  0  0  0
    6.8483   -1.1079    0.0000 C   0  0  0  0  0  0  0  0  0  0  0  0
    7.5627   -0.6954    0.0000 C   0  0  0  0  0  0  0  0  0  0  0  0
    7.5627    0.1296    0.0000 C   0  0  0  0  0  0  0  0  0  0  0  0
    6.8483    0.5421    0.0000 C   0  0  0  0  0  0  0  0  0  0  0  0
    6.1338    0.1296    0.0000 C   0  0  0  0  0  0  0  0  0  0  0  0
    5.4193    0.5421    0.0000 C   0  0  0  0  0  0  0  0  0  0  0  0
    5.4193    1.3671    0.0000 O   0  0  0  0  0  0  0  0  0  0  0  0
    4.7049    0.1296    0.0000 N   0  0  0  0  0  0  0  0  0  0  0  0
    4.7049   -0.6954    0.0000 N   0  0  0  0  0  0  0  0  0  0  0  0
    5.4193   -1.9329    0.0000 C   0  0  0  0  0  0  0  0  0  0  0  0
    4.7049   -3.1704    0.0000 C   0  0  0  0  0  0  0  0  0  0  0  0
    3.2759   -4.8204    0.0000 O   0  0  0  0  0  0  0  0  0  0  0  0
    6.1338   -5.6454    0.0000 N   0  0  0  0  0  0  0  0  0  0  0  0
    5.4193   -6.0579    0.0000 C   0  0  0  0  0  0  0  0  0  0  0  0
    4.7049   -5.6454    0.0000 C   0  0  0  0  0  0  0  0  0  0  0  0
    8.3877   -5.6454    0.0000 C   0  0  0  0  0  0  0  0  0  0  0  0
    7.5627   -5.6454    0.0000 C   0  0  0  0  0  0  0  0  0  0  0  0
    6.8483   -6.8829    0.0000 O   0  0  0  0  0  0  0  0  0  0  0  0
    6.8483   -6.0579    0.0000 C   0  0  0  0  0  0  0  0  0  0  0  0
    7.9752   -4.9310    0.0000 C   0  0  0  0  0  0  0  0  0  0  0  0
    6.1338   -4.8204    0.0000 C   0  0  0  0  0  0  0  0  0  0  0  0
    5.4193   -4.4079    0.0000 C   0  0  0  0  0  0  0  0  0  0  0  0
  1  2  1  0
  1  3  1  0
  3  4  2  0
  3 21  1  0
  4  5  1  0
  4  6  1  0
  6  7  2  0
  8  7  1  0
  8 20  1  0
  9 10  1  0
  9 15  2  0
 10 19  2  0
 11  9  1  0
 12 11  2  0
 12 13  1  0
 13 14  2  0
 15 14  1  0
 15 16  1  0
 16 17  2  0
 18 16  1  0
 19 18  1  0
 20 10  1  0
 21  8  2  0
 22  1  2  0
 23 24  1  0
 25  2  1  0
 25 24  1  0
 26 27  1  0
 27 30  1  0
 28 29  2  0
 29 23  1  0
 29 27  1  0
 30 26  1  0
 31 23  1  0
 31 32  1  0
 32  2  1  0
M  END
> <chembl_id>
CHEMBL521686

> <chembl_pref_name>
OLAPARIB

$$$$

     RDKit          2D

 22 23  0  0  0  0  0  0  0  0999 V2000
    8.0598   -0.3070    0.0000 Cl  0  0  0  0  0  0  0  0  0  0  0  0
    5.2326    3.6320    0.0000 C   0  0  0  0  0  0  0  0  0  0  0  0
    5.2326    2.8070    0.0000 N   0  0  0  0  0  0  0  0  0  0  0  0
    5.9471    2.3945    0.0000 C   0  0  0  0  0  0  0  0  0  0  0  0
    4.5181    2.3945    0.0000 C   0  0  0  0  0  0  0  0  0  0  0  0
    4.5181    1.5695    0.0000 C   0  0  0  0  0  0  0  0  0  0  0  0
    3.8037    1.1570    0.0000 C   0  0  0  0  0  0  0  0  0  0  0  0
    3.8037    0.3320    0.0000 C   0  0  0  0  0  0  0  0  0  0  0  0
    4.5470   -0.0260    0.0000 C   0  0  0  0  0  0  0  0  0  0  0  0
    5.1517    0.5352    0.0000 C   0  0  0  0  0  0  0  0  0  0  0  0
    5.9401    0.2920    0.0000 C   0  0  0  0  0  0  0  0  0  0  0  0
    6.1237   -0.5123    0.0000 C   0  0  0  0  0  0  0  0  0  0  0  0
    5.5189   -1.0735    0.0000 C   0  0  0  0  0  0  0  0  0  0  0  0
    4.7305   -0.8303    0.0000 C   0  0  0  0  0  0  0  0  0  0  0  0
    4.2162   -1.4753    0.0000 C   0  0  0  0  0  0  0  0  0  0  0  0
    3.3912   -1.4753    0.0000 O   0  0  0  0  0  0  0  0  0  0  0  0
    2.8768   -0.8303    0.0000 C   0  0  0  0  0  0  0  0  0  0  0  0
    2.0884   -1.0735    0.0000 C   0  0  0  0  0  0  0  0  0  0  0  0
    1.4837   -0.5123    0.0000 C   0  0  0  0  0  0  0  0  0  0  0  0
    1.6673    0.2920    0.0000 C   0  0  0  0  0  0  0  0  0  0  0  0
    2.4556    0.5352    0.0000 C   0  0  0  0  0  0  0  0  0  0  0  0
    3.0604   -0.0260    0.0000 C   0  0  0  0  0  0  0  0  0  0  0  0
  2  3  1  0
  3  4  1  0
  3  5  1  0
  5  6  1  0
  7  6  1  0
  7  8  2  3
  8  9  1  0
  9 10  2  0
 10 11  1  0
 11 12  2  0
 12 13  1  0
 13 14  2  0
  9 14  1  0
 14 15  1  0
 15 16  1  0
 16 17  1  0
 17 18  2  0
 18 19  1  0
 19 20  2  0
 20 21  1  0
 21 22  2  0
  8 22  1  0
 17 22  1  0
M  END
> <chembl_id>
CHEMBL1628234

> <chembl_pref_name>
DOXEPIN HYDROCHLORIDE

$$$$

     RDKit          2D

 15 16  0  0  1  0  0  0  0  0999 V2000
    5.4125   -6.2417    0.0000 C   0  0  0  0  0  0  0  0  0  0  0  0
    5.9875   -6.6667    0.0000 N   0  0  0  0  0  0  0  0  0  0  0  0
    3.2625   -5.5667    0.0000 C   0  0  0  0  0  0  0  0  0  0  0  0
    6.3417   -5.5750    0.0000 N   0  0  0  0  0  0  0  0  0  0  0  0
    3.8375   -5.1542    0.0000 O   0  0  0  0  0  0  0  0  0  0  0  0
    4.1875   -6.2417    0.0000 C   0  0  0  0  0  0  0  0  0  0  0  0
    4.8000   -6.6000    0.0000 C   0  0  0  0  0  0  0  0  0  0  0  0
    6.5542   -6.2417    0.0000 C   0  0  0  0  0  0  0  0  0  0  0  0
    3.4792   -6.2417    0.0000 C   0  0  0  0  0  0  0  0  0  0  0  0
    5.6292   -5.5750    0.0000 C   0  0  0  0  0  0  0  0  0  0  0  0
    4.4042   -5.5667    0.0000 C   0  0  0  0  0  0  0  0  0  0  0  0
    2.5875   -5.3542    0.0000 O   0  0  0  0  0  0  0  0  0  0  0  0
    5.9875   -7.3750    0.0000 C   0  0  0  0  0  0  0  0  0  0  0  0
    2.8625   -6.5917    0.0000 C   0  0  0  0  0  0  0  0  0  0  0  0
    2.2500   -6.2292    0.0000 C   0  0  0  0  0  0  0  0  0  0  0  0
  2  1  1  0
  3  9  1  0
  4 10  1  0
  5 11  1  0
  6  7  1  6
  7  1  1  0
  8  2  1  0
  9  6  1  0
 10  1  2  0
 11  6  1  0
 12  3  2  0
 13  2  1  0
  9 14  1  6
 15 14  1  0
  8  4  2  0
  3  5  1  0
M  END
> <chembl_id>
CHEMBL550

> <chembl_pref_name>
PILOCARPINE

$$$$

     RDKit          2D

  7  7  0  0  0  0  0  0  0  0999 V2000
   -0.0083    0.6083    0.0000 C   0  0  0  0  0  0  0  0  0  0  0  0
   -0.0083    2.0833    0.0000 O   0  0  0  0  0  0  0  0  0  0  0  0
    1.2375   -0.1167    0.0000 C   0  0  0  0  0  0  0  0  0  0  0  0
   -1.2458   -0.0667    0.0000 C   0  0  0  0  0  0  0  0  0  0  0  0
   -1.2458   -1.5000    0.0000 C   0  0  0  0  0  0  0  0  0  0  0  0
    1.2375   -1.5000    0.0000 C   0  0  0  0  0  0  0  0  0  0  0  0
   -0.0083   -2.2417    0.0000 C   0  0  0  0  0  0  0  0  0  0  0  0
  2  1  1  0
  3  1  1  0
  4  1  2  0
  5  4  1  0
  6  3  2  0
  7  5  2  0
  6  7  1  0
M  END
> <chembl_id>
CHEMBL14060

> <chembl_pref_name>
PHENOL

$$$$

     RDKit          2D

 22 25  0  0  0  0  0  0  0  0999 V2000
    1.6667   -1.9625    0.0000 C   0  0  0  0  0  0  0  0  0  0  0  0
    0.9667   -1.9625    0.0000 N   0  0  0  0  0  0  0  0  0  0  0  0
    2.1167   -2.5167    0.0000 C   0  0  0  0  0  0  0  0  0  0  0  0
    1.9667   -3.2042    0.0000 C   0  0  0  0  0  0  0  0  0  0  0  0
    1.3042   -3.5167    0.0000 O   0  0  0  0  0  0  0  0  0  0  0  0
    2.0208   -1.3542    0.0000 N   0  0  0  0  0  0  0  0  0  0  0  0
    0.5167   -2.5167    0.0000 C   0  0  0  0  0  0  0  0  0  0  0  0
    0.6667   -3.1917    0.0000 C   0  0  0  0  0  0  0  0  0  0  0  0
    2.7917   -2.3042    0.0000 C   0  0  0  0  0  0  0  0  0  0  0  0
    2.7458   -0.1208    0.0000 N   0  0  0  0  0  0  0  0  0  0  0  0
    2.4792   -3.6875    0.0000 C   0  0  0  0  0  0  0  0  0  0  0  0
    3.3167   -2.7917    0.0000 C   0  0  0  0  0  0  0  0  0  0  0  0
    3.1542   -3.4792    0.0000 C   0  0  0  0  0  0  0  0  0  0  0  0
    3.9917   -2.5917    0.0000 Cl  0  0  0  0  0  0  0  0  0  0  0  0
    1.6833   -0.7458    0.0000 C   0  0  0  0  0  0  0  0  0  0  0  0
    2.7417   -1.3583    0.0000 C   0  0  0  0  0  0  0  0  0  0  0  0
   -0.1458   -2.2917    0.0000 C   0  0  0  0  0  0  0  0  0  0  0  0
    3.0958   -0.7333    0.0000 C   0  0  0  0  0  0  0  0  0  0  0  0
    2.0375   -0.1208    0.0000 C   0  0  0  0  0  0  0  0  0  0  0  0
    0.1542   -3.6750    0.0000 C   0  0  0  0  0  0  0  0  0  0  0  0
   -0.6708   -2.7542    0.0000 C   0  0  0  0  0  0  0  0  0  0  0  0
   -0.5333   -3.4542    0.0000 C   0  0  0  0  0  0  0  0  0  0  0  0
  2  1  2  0
  3  1  1  0
  4  3  2  0
  5  4  1  0
  6  1  1  0
  7  2  1  0
  8  7  2  0
  9  3  1  0
 10 18  1  0
 11  4  1  0
 12  9  2  0
 13 12  1  0
 14 12  1  0
 15  6  1  0
 16  6  1  0
 17  7  1  0
 18 16  1  0
 19 15  1  0
 20  8  1  0
 21 17  2  0
 22 21  1  0
 19 10  1  0
  5  8  1  0
 11 13  2  0
 20 22  2  0
M  END
> <chembl_id>
CHEMBL1113

> <chembl_pref_name>
AMOXAPINE

$$$$

     RDKit          2D

 23 26  0  0  0  0  0  0  0  0999 V2000
    5.5792   -5.0292    0.0000 C   0  0  0  0  0  0  0  0  0  0  0  0
    4.8625   -5.0417    0.0000 N   0  0  0  0  0  0  0  0  0  0  0  0
    6.0042   -5.5917    0.0000 C   0  0  0  0  0  0  0  0  0  0  0  0
    5.2250   -6.5917    0.0000 N   0  0  0  0  0  0  0  0  0  0  0  0
    5.9167   -4.4125    0.0000 N   0  0  0  0  0  0  0  0  0  0  0  0
    4.4125   -5.6000    0.0000 C   0  0  0  0  0  0  0  0  0  0  0  0
    5.8625   -6.2792    0.0000 C   0  0  0  0  0  0  0  0  0  0  0  0
    4.5917   -6.2917    0.0000 C   0  0  0  0  0  0  0  0  0  0  0  0
    3.7292   -5.4167    0.0000 C   0  0  0  0  0  0  0  0  0  0  0  0
    6.5750   -3.1542    0.0000 N   0  0  0  0  0  0  0  0  0  0  0  0
    6.6167   -4.3792    0.0000 C   0  0  0  0  0  0  0  0  0  0  0  0
    5.5375   -3.8125    0.0000 C   0  0  0  0  0  0  0  0  0  0  0  0
    4.0917   -6.8000    0.0000 C   0  0  0  0  0  0  0  0  0  0  0  0
    3.2167   -5.9042    0.0000 C   0  0  0  0  0  0  0  0  0  0  0  0
    6.9542   -3.7625    0.0000 C   0  0  0  0  0  0  0  0  0  0  0  0
    5.8667   -3.1792    0.0000 C   0  0  0  0  0  0  0  0  0  0  0  0
    6.6792   -5.3542    0.0000 C   0  0  0  0  0  0  0  0  0  0  0  0
    3.4042   -6.6042    0.0000 C   0  0  0  0  0  0  0  0  0  0  0  0
    2.5375   -5.7042    0.0000 Cl  0  0  0  0  0  0  0  0  0  0  0  0
    6.3917   -6.7417    0.0000 C   0  0  0  0  0  0  0  0  0  0  0  0
    6.9042   -2.5292    0.0000 C   0  0  0  0  0  0  0  0  0  0  0  0
    7.2167   -5.8375    0.0000 C   0  0  0  0  0  0  0  0  0  0  0  0
    7.0750   -6.5292    0.0000 C   0  0  0  0  0  0  0  0  0  0  0  0
  2  1  2  0
  3  1  1  0
  4  7  1  0
  5  1  1  0
  6  2  1  0
  7  3  2  0
  8  6  2  0
  9  6  1  0
 10 16  1  0
 11  5  1  0
 12  5  1  0
 13  8  1  0
 14  9  2  0
 15 11  1  0
 16 12  1  0
 17  3  1  0
 18 14  1  0
 19 14  1  0
 20  7  1  0
 21 10  1  0
 22 17  2  0
 23 22  1  0
 10 15  1  0
  8  4  1  0
 23 20  2  0
 18 13  2  0
M  END
> <chembl_id>
CHEMBL42

> <chembl_pref_name>
CLOZAPINE

$$$$

     RDKit          2D

 30 34  0  0  0  0  0  0  0  0999 V2000
    2.2542   -1.1917    0.0000 C   0  0  0  0  0  0  0  0  0  0  0  0
   -2.0458    0.9208    0.0000 C   0  0  0  0  0  0  0  0  0  0  0  0
    1.9042   -0.6000    0.0000 N   0  0  0  0  0  0  0  0  0  0  0  0
   -2.0458    1.5833    0.0000 N   0  0  0  0  0  0  0  0  0  0  0  0
    2.9042   -1.0417    0.0000 N   0  0  0  0  0  0  0  0  0  0  0  0
   -2.6208    0.5958    0.0000 N   0  0  0  0  0  0  0  0  0  0  0  0
    3.0167   -0.3417    0.0000 C   0  0  0  0  0  0  0  0  0  0  0  0
    2.3917   -0.0292    0.0000 C   0  0  0  0  0  0  0  0  0  0  0  0
   -3.1958    1.5833    0.0000 C   0  0  0  0  0  0  0  0  0  0  0  0
   -3.1958    0.9208    0.0000 C   0  0  0  0  0  0  0  0  0  0  0  0
    1.0125   -0.1500    0.0000 C   0  0  0  0  0  0  0  0  0  0  0  0
    3.6000    0.0333    0.0000 C   0  0  0  0  0  0  0  0  0  0  0  0
   -0.2083    0.5250    0.0000 N   0  0  0  0  0  0  0  0  0  0  0  0
    1.9542   -1.7917    0.0000 O   0  0  0  0  0  0  0  0  0  0  0  0
    2.3375    0.6458    0.0000 C   0  0  0  0  0  0  0  0  0  0  0  0
   -1.4208    0.5708    0.0000 O   0  0  0  0  0  0  0  0  0  0  0  0
    1.0125    0.5458    0.0000 C   0  0  0  0  0  0  0  0  0  0  0  0
    0.4375   -0.5167    0.0000 C   0  0  0  0  0  0  0  0  0  0  0  0
   -0.2000   -0.1792    0.0000 C   0  0  0  0  0  0  0  0  0  0  0  0
    0.3750    0.8833    0.0000 C   0  0  0  0  0  0  0  0  0  0  0  0
    3.5542    0.7250    0.0000 C   0  0  0  0  0  0  0  0  0  0  0  0
   -1.4333    1.9250    0.0000 C   0  0  0  0  0  0  0  0  0  0  0  0
   -0.8000    1.5875    0.0000 C   0  0  0  0  0  0  0  0  0  0  0  0
    2.9167    1.0500    0.0000 C   0  0  0  0  0  0  0  0  0  0  0  0
    4.1500    1.1083    0.0000 Cl  0  0  0  0  0  0  0  0  0  0  0  0
   -0.8125    0.8625    0.0000 C   0  0  0  0  0  0  0  0  0  0  0  0
   -3.7708    1.9083    0.0000 C   0  0  0  0  0  0  0  0  0  0  0  0
   -3.7708    0.5958    0.0000 C   0  0  0  0  0  0  0  0  0  0  0  0
   -4.3458    1.5833    0.0000 C   0  0  0  0  0  0  0  0  0  0  0  0
   -4.3458    0.9208    0.0000 C   0  0  0  0  0  0  0  0  0  0  0  0
  2  4  1  0
  3  1  1  0
  4 22  1  0
  5  1  1  0
  6  2  1  0
  7  5  1  0
  8  3  1  0
  9  4  1  0
 10  9  2  0
 11  3  1  0
 12  7  1  0
 13 19  1  0
 14  1  2  0
 15  8  1  0
 16  2  2  0
 17 11  1  0
 18 11  1  0
 19 18  1  0
 20 17  1  0
 21 12  2  0
 22 23  1  0
 23 26  1  0
 24 15  2  0
 25 21  1  0
 26 13  1  0
 27  9  1  0
 28 10  1  0
 29 27  2  0
 30 29  1  0
  8  7  2  0
 20 13  1  0
 24 21  1  0
 10  6  1  0
 28 30  2  0
M  END
> <chembl_id>
CHEMBL219916

> <chembl_pref_name>
DOMPERIDONE

$$$$

     RDKit          2D

 23 26  0  0  0  0  0  0  0  0999 V2000
   -0.1625   -0.6667    0.0000 C   0  0  0  0  0  0  0  0  0  0  0  0
   -1.3458   -0.6667    0.0000 N   0  0  0  0  0  0  0  0  0  0  0  0
    0.5875   -1.5792    0.0000 C   0  0  0  0  0  0  0  0  0  0  0  0
    0.3375    0.3833    0.0000 N   0  0  0  0  0  0  0  0  0  0  0  0
    0.3417   -2.7375    0.0000 C   0  0  0  0  0  0  0  0  0  0  0  0
   -0.7000   -3.2542    0.0000 O   0  0  0  0  0  0  0  0  0  0  0  0
   -2.0458   -1.5917    0.0000 C   0  0  0  0  0  0  0  0  0  0  0  0
   -1.7625   -2.7500    0.0000 C   0  0  0  0  0  0  0  0  0  0  0  0
    1.3000    2.5208    0.0000 N   0  0  0  0  0  0  0  0  0  0  0  0
    1.7375   -1.2042    0.0000 C   0  0  0  0  0  0  0  0  0  0  0  0
    1.5000    0.4625    0.0000 C   0  0  0  0  0  0  0  0  0  0  0  0
   -0.3458    1.3083    0.0000 C   0  0  0  0  0  0  0  0  0  0  0  0
    1.2542   -3.5250    0.0000 C   0  0  0  0  0  0  0  0  0  0  0  0
    2.0042    1.5083    0.0000 C   0  0  0  0  0  0  0  0  0  0  0  0
    0.1417    2.4000    0.0000 C   0  0  0  0  0  0  0  0  0  0  0  0
    2.6167   -2.0000    0.0000 C   0  0  0  0  0  0  0  0  0  0  0  0
    2.3792   -3.1500    0.0000 C   0  0  0  0  0  0  0  0  0  0  0  0
    3.7375   -1.6500    0.0000 Cl  0  0  0  0  0  0  0  0  0  0  0  0
    1.7250    3.5958    0.0000 C   0  0  0  0  0  0  0  0  0  0  0  0
   -3.2000   -1.2750    0.0000 C   0  0  0  0  0  0  0  0  0  0  0  0
   -2.6375   -3.5917    0.0000 C   0  0  0  0  0  0  0  0  0  0  0  0
   -4.0625   -2.0917    0.0000 C   0  0  0  0  0  0  0  0  0  0  0  0
   -3.7833   -3.2417    0.0000 C   0  0  0  0  0  0  0  0  0  0  0  0
  2  1  2  0
  3  1  1  0
  4  1  1  0
  5  3  2  0
  6  5  1  0
  7  2  1  0
  8  7  2  0
  9 15  1  0
 10  3  1  0
 11  4  1  0
 12  4  1  0
 13  5  1  0
 14 11  1  0
 15 12  1  0
 16 10  2  0
 17 16  1  0
 18 16  1  0
 19  9  1  0
 20  7  1  0
 21  8  1  0
 22 20  2  0
 23 22  1  0
 14  9  1  0
  6  8  1  0
 13 17  2  0
 21 23  2  0
M  END
> <chembl_id>
CHEMBL831

> <chembl_pref_name>
LOXAPINE

$$$$

     RDKit          2D

133145  0  0  0  0  0  0  0  0999 V2000
   17.2932   -7.7244    0.0000 C   0  0  0  0  0  0  0  0  0  0  0  0
   16.5562   -8.1656    0.0000 C   0  0  0  0  0  0  0  0  0  0  0  0
   16.5562   -8.9896    0.0000 C   0  0  0  0  0  0  0  0  0  0  0  0
   17.2786   -6.8761    0.0000 C   0  0  0  0  0  0  0  0  0  0  0  0
   17.9718   -8.1219    0.0000 C   0  0  0  0  0  0  0  0  0  0  0  0
   18.7377   -4.4134    0.0000 C   0  0  0  0  0  0  0  0  0  0  0  0
   17.9718   -8.9896    0.0000 C   0  0  0  0  0  0  0  0  0  0  0  0
   15.7612   -9.2757    0.0000 O   0  0  0  0  0  0  0  0  0  0  0  0
   15.7612   -7.9329    0.0000 C   0  0  0  0  0  0  0  0  0  0  0  0
   11.2578   -4.3262    0.0000 C   0  0  0  0  0  0  0  0  0  0  0  0
   17.2932   -9.3872    0.0000 C   0  0  0  0  0  0  0  0  0  0  0  0
   19.4892   -4.8497    0.0000 O   0  0  0  0  0  0  0  0  0  0  0  0
    9.7258   -4.7479    0.0000 C   0  0  0  0  0  0  0  0  0  0  0  0
   12.9108   -4.3262    0.0000 C   0  0  0  0  0  0  0  0  0  0  0  0
   17.9718   -6.4980    0.0000 O   0  0  0  0  0  0  0  0  0  0  0  0
   12.4987   -3.6136    0.0000 O   0  0  0  0  0  0  0  0  0  0  0  0
    9.3186   -4.0353    0.0000 O   0  0  0  0  0  0  0  0  0  0  0  0
   12.4987   -5.0388    0.0000 C   0  0  0  0  0  0  0  0  0  0  0  0
    9.3186   -5.4605    0.0000 C   0  0  0  0  0  0  0  0  0  0  0  0
   11.6746   -5.0388    0.0000 C   0  0  0  0  0  0  0  0  0  0  0  0
    8.0776   -4.7479    0.0000 C   0  0  0  0  0  0  0  0  0  0  0  0
   14.3845   -4.3601    0.0000 C   0  0  0  0  0  0  0  0  0  0  0  0
   11.6746   -3.6136    0.0000 C   0  0  0  0  0  0  0  0  0  0  0  0
   18.7377   -5.2520    0.0000 C   0  0  0  0  0  0  0  0  0  0  0  0
   17.9960   -4.0013    0.0000 O   0  0  0  0  0  0  0  0  0  0  0  0
    8.4946   -5.4605    0.0000 C   0  0  0  0  0  0  0  0  0  0  0  0
   20.1242   -4.4329    0.0000 C   0  0  0  0  0  0  0  0  0  0  0  0
   17.9718   -5.6592    0.0000 C   0  0  0  0  0  0  0  0  0  0  0  0
    8.4946   -4.0353    0.0000 C   0  0  0  0  0  0  0  0  0  0  0  0
   15.1262   -3.9529    0.0000 C   0  0  0  0  0  0  0  0  0  0  0  0
   10.4385   -4.3311    0.0000 O   0  0  0  0  0  0  0  0  0  0  0  0
   13.6185   -3.9093    0.0000 O   0  0  0  0  0  0  0  0  0  0  0  0
   15.8436   -4.3601    0.0000 C   0  0  0  0  0  0  0  0  0  0  0  0
   15.2862   -8.5486    0.0000 C   0  0  0  0  0  0  0  0  0  0  0  0
   15.7612   -7.0942    0.0000 C   0  0  0  0  0  0  0  0  0  0  0  0
   16.5562   -6.4543    0.0000 O   0  0  0  0  0  0  0  0  0  0  0  0
   15.2086   -6.6870    0.0000 C   0  0  0  0  0  0  0  0  0  0  0  0
   17.2932   -5.2424    0.0000 C   0  0  0  0  0  0  0  0  0  0  0  0
   17.2932   -4.3747    0.0000 C   0  0  0  0  0  0  0  0  0  0  0  0
   14.3845   -5.2520    0.0000 C   0  0  0  0  0  0  0  0  0  0  0  0
   20.1242   -3.6523    0.0000 C   0  0  0  0  0  0  0  0  0  0  0  0
   15.2086   -5.7901    0.0000 C   0  0  0  0  0  0  0  0  0  0  0  0
   16.5708   -7.3269    0.0000 O   0  0  0  0  0  0  0  0  0  0  0  0
   18.7475   -3.6523    0.0000 C   0  0  0  0  0  0  0  0  0  0  0  0
   19.4892   -3.2354    0.0000 C   0  0  0  0  0  0  0  0  0  0  0  0
   16.5708   -3.9529    0.0000 C   0  0  0  0  0  0  0  0  0  0  0  0
   20.7786   -4.8110    0.0000 C   0  0  0  0  0  0  0  0  0  0  0  0
   17.3077  -10.2112    0.0000 O   0  0  0  0  0  0  0  0  0  0  0  0
    7.2535   -4.7479    0.0000 O   0  0  0  0  0  0  0  0  0  0  0  0
   11.2625   -5.7514    0.0000 O   0  0  0  0  0  0  0  0  0  0  0  0
    8.0825   -6.1731    0.0000 O   0  0  0  0  0  0  0  0  0  0  0  0
   18.6699   -9.4212    0.0000 C   0  0  0  0  0  0  0  0  0  0  0  0
   15.1262   -3.1336    0.0000 C   0  0  0  0  0  0  0  0  0  0  0  0
   11.2625   -2.9009    0.0000 C   0  0  0  0  0  0  0  0  0  0  0  0
    8.0825   -3.3178    0.0000 C   0  0  0  0  0  0  0  0  0  0  0  0
   13.6670   -5.6592    0.0000 C   0  0  0  0  0  0  0  0  0  0  0  0
   20.8223   -3.2209    0.0000 C   0  0  0  0  0  0  0  0  0  0  0  0
   20.7786   -5.5672    0.0000 C   0  0  0  0  0  0  0  0  0  0  0  0
   21.4331   -4.4329    0.0000 C   0  0  0  0  0  0  0  0  0  0  0  0
   11.6795   -6.4640    0.0000 C   0  0  0  0  0  0  0  0  0  0  0  0
    8.4946   -6.8858    0.0000 C   0  0  0  0  0  0  0  0  0  0  0  0
   17.3165   -3.2115    0.0000 H   0  0  0  0  0  0  0  0  0  0  0  0
   18.9691   -6.2585    0.0000 H   0  0  0  0  0  0  0  0  0  0  0  0
   20.1573   -5.5958    0.0000 H   0  0  0  0  0  0  0  0  0  0  0  0
   16.4694  -10.1498    0.0000 H   0  0  0  0  0  0  0  0  0  0  0  0
   18.2976   -7.1372    0.0000 H   0  0  0  0  0  0  0  0  0  0  0  0
   17.1477    0.3762    0.0000 C   0  0  0  0  0  0  0  0  0  0  0  0
   16.4108   -0.0650    0.0000 C   0  0  0  0  0  0  0  0  0  0  0  0
   16.4108   -0.8891    0.0000 C   0  0  0  0  0  0  0  0  0  0  0  0
   17.1332    1.2244    0.0000 C   0  0  0  0  0  0  0  0  0  0  0  0
   17.8264   -0.0214    0.0000 C   0  0  0  0  0  0  0  0  0  0  0  0
   18.5923    3.6871    0.0000 C   0  0  0  0  0  0  0  0  0  0  0  0
   17.8264   -0.8891    0.0000 C   0  0  0  0  0  0  0  0  0  0  0  0
   15.6158   -1.1752    0.0000 O   0  0  0  0  0  0  0  0  0  0  0  0
   15.6158    0.1677    0.0000 C   0  0  0  0  0  0  0  0  0  0  0  0
   11.1123    3.7744    0.0000 C   0  0  0  0  0  0  0  0  0  0  0  0
   17.1477   -1.2866    0.0000 C   0  0  0  0  0  0  0  0  0  0  0  0
   19.3437    3.2508    0.0000 O   0  0  0  0  0  0  0  0  0  0  0  0
    9.5804    3.3526    0.0000 C   0  0  0  0  0  0  0  0  0  0  0  0
   12.7654    3.7744    0.0000 C   0  0  0  0  0  0  0  0  0  0  0  0
   17.8264    1.6025    0.0000 O   0  0  0  0  0  0  0  0  0  0  0  0
   12.3533    4.4870    0.0000 O   0  0  0  0  0  0  0  0  0  0  0  0
    9.1732    4.0652    0.0000 O   0  0  0  0  0  0  0  0  0  0  0  0
   12.3533    3.0618    0.0000 C   0  0  0  0  0  0  0  0  0  0  0  0
    9.1732    2.6400    0.0000 C   0  0  0  0  0  0  0  0  0  0  0  0
   11.5292    3.0618    0.0000 C   0  0  0  0  0  0  0  0  0  0  0  0
    7.9322    3.3526    0.0000 C   0  0  0  0  0  0  0  0  0  0  0  0
   14.2391    3.7404    0.0000 C   0  0  0  0  0  0  0  0  0  0  0  0
   11.5292    4.4870    0.0000 C   0  0  0  0  0  0  0  0  0  0  0  0
   18.5923    2.8485    0.0000 C   0  0  0  0  0  0  0  0  0  0  0  0
   17.8506    4.0992    0.0000 O   0  0  0  0  0  0  0  0  0  0  0  0
    8.3491    2.6400    0.0000 C   0  0  0  0  0  0  0  0  0  0  0  0
   19.9788    3.6677    0.0000 C   0  0  0  0  0  0  0  0  0  0  0  0
   17.8264    2.4413    0.0000 C   0  0  0  0  0  0  0  0  0  0  0  0
    8.3491    4.0652    0.0000 C   0  0  0  0  0  0  0  0  0  0  0  0
   14.9808    4.1476    0.0000 C   0  0  0  0  0  0  0  0  0  0  0  0
   10.2930    3.7695    0.0000 O   0  0  0  0  0  0  0  0  0  0  0  0
   13.4731    4.1912    0.0000 O   0  0  0  0  0  0  0  0  0  0  0  0
   15.6982    3.7404    0.0000 C   0  0  0  0  0  0  0  0  0  0  0  0
   15.1408   -0.4480    0.0000 C   0  0  0  0  0  0  0  0  0  0  0  0
   15.6158    1.0063    0.0000 C   0  0  0  0  0  0  0  0  0  0  0  0
   16.4108    1.6462    0.0000 O   0  0  0  0  0  0  0  0  0  0  0  0
   15.0632    1.4135    0.0000 C   0  0  0  0  0  0  0  0  0  0  0  0
   17.1477    2.8581    0.0000 C   0  0  0  0  0  0  0  0  0  0  0  0
   17.1477    3.7258    0.0000 C   0  0  0  0  0  0  0  0  0  0  0  0
   14.2391    2.8485    0.0000 C   0  0  0  0  0  0  0  0  0  0  0  0
   19.9788    4.4482    0.0000 C   0  0  0  0  0  0  0  0  0  0  0  0
   15.0632    2.3104    0.0000 C   0  0  0  0  0  0  0  0  0  0  0  0
   16.4253    0.7736    0.0000 O   0  0  0  0  0  0  0  0  0  0  0  0
   18.6020    4.4482    0.0000 C   0  0  0  0  0  0  0  0  0  0  0  0
   19.3437    4.8651    0.0000 C   0  0  0  0  0  0  0  0  0  0  0  0
   16.4253    4.1476    0.0000 C   0  0  0  0  0  0  0  0  0  0  0  0
   20.6332    3.2896    0.0000 C   0  0  0  0  0  0  0  0  0  0  0  0
   17.1623   -2.1107    0.0000 O   0  0  0  0  0  0  0  0  0  0  0  0
    7.1081    3.3526    0.0000 O   0  0  0  0  0  0  0  0  0  0  0  0
   11.1171    2.3491    0.0000 O   0  0  0  0  0  0  0  0  0  0  0  0
    7.9370    1.9274    0.0000 O   0  0  0  0  0  0  0  0  0  0  0  0
   18.5244   -1.3206    0.0000 C   0  0  0  0  0  0  0  0  0  0  0  0
   14.9808    4.9669    0.0000 C   0  0  0  0  0  0  0  0  0  0  0  0
   11.1171    5.1996    0.0000 C   0  0  0  0  0  0  0  0  0  0  0  0
    7.9370    4.7827    0.0000 C   0  0  0  0  0  0  0  0  0  0  0  0
   13.5216    2.4413    0.0000 C   0  0  0  0  0  0  0  0  0  0  0  0
   20.6768    4.8796    0.0000 C   0  0  0  0  0  0  0  0  0  0  0  0
   20.6332    2.5333    0.0000 C   0  0  0  0  0  0  0  0  0  0  0  0
   21.2876    3.6677    0.0000 C   0  0  0  0  0  0  0  0  0  0  0  0
   11.5341    1.6365    0.0000 C   0  0  0  0  0  0  0  0  0  0  0  0
    8.3491    1.2148    0.0000 C   0  0  0  0  0  0  0  0  0  0  0  0
   21.2876    2.1552    0.0000 C   0  0  0  0  0  0  0  0  0  0  0  0
   17.1711    4.8891    0.0000 H   0  0  0  0  0  0  0  0  0  0  0  0
   18.8237    1.8420    0.0000 H   0  0  0  0  0  0  0  0  0  0  0  0
   20.0119    2.5047    0.0000 H   0  0  0  0  0  0  0  0  0  0  0  0
   16.3240   -2.0493    0.0000 H   0  0  0  0  0  0  0  0  0  0  0  0
   18.1521    0.9633    0.0000 H   0  0  0  0  0  0  0  0  0  0  0  0
  2  1  1  0
  3  2  1  0
  1  4  1  0
  5  1  1  0
  6 24  1  1
  7  5  2  0
  8  3  1  0
  9  2  1  0
 10 23  1  0
 11  7  1  0
  6 12  1  0
 13 31  1  1
 14 32  1  1
 15  4  1  0
 16 14  1  0
 17 13  1  0
 18 14  1  0
 19 13  1  0
 20 18  1  0
 21 29  1  0
 22 40  1  0
 23 16  1  0
 24 28  1  0
 25 39  1  0
 26 19  1  0
 27 12  1  0
 28 15  1  0
 29 17  1  0
 30 33  2  0
 10 31  1  1
 22 32  1  6
 33 46  1  0
 34  9  1  0
 35  9  2  0
 36  4  2  0
 37 35  1  0
 38 28  1  0
 39 38  1  0
 40 42  1  0
 41 45  1  0
 42 37  2  0
  2 43  1  6
 44  6  1  0
 45 44  1  0
 39 46  1  0
 47 27  1  0
 11 48  1  1
 21 49  1  1
 20 50  1  6
 26 51  1  6
 52  7  1  0
 53 30  1  0
 23 54  1  6
 29 55  1  6
 40 56  1  6
 41 57  1  6
 47 58  1  0
 59 47  1  0
 60 50  1  0
 61 51  1  0
 11  3  1  0
 34  8  1  0
 25  6  1  0
 30 22  1  0
 41 27  1  0
 10 20  1  0
 21 26  1  0
 39 62  1  6
 28 63  1  6
 27 64  1  6
  3 65  1  6
  1 66  1  1
 68 67  1  0
 69 68  1  0
 67 70  1  0
 71 67  1  0
 72 90  1  1
 73 71  2  0
 74 69  1  0
 75 68  1  0
 76 89  1  0
 77 73  1  0
 72 78  1  0
 79 97  1  1
 80 98  1  1
 81 70  1  0
 82 80  1  0
 83 79  1  0
 84 80  1  0
 85 79  1  0
 86 84  1  0
 87 95  1  0
 88106  1  0
 89 82  1  0
 90 94  1  0
 91 72  1  0
 92 85  1  0
 93 78  1  0
 94 81  1  0
 95 83  1  0
 96 99  2  0
 76 97  1  1
 88 98  1  6
 99112  1  0
100 75  1  0
101 75  2  0
102 70  2  0
103101  1  0
104 94  1  0
105104  1  0
106108  1  0
107 93  1  0
108103  2  0
 68109  1  6
 72110  1  0
111110  1  0
105112  1  0
113 93  1  0
 77114  1  1
 87115  1  1
 86116  1  6
 92117  1  6
118 73  1  0
119 96  1  0
 89120  1  6
 95121  1  6
106122  1  6
107123  1  6
113124  1  0
113125  1  1
126116  1  0
127117  1  0
128124  1  0
 77 69  1  0
100 74  1  0
105 91  1  0
111107  1  0
 96 88  1  0
 76 86  1  0
 87 92  1  0
105129  1  6
 94130  1  6
 93131  1  6
 69132  1  6
 67133  1  1
M  END
> <chembl_id>
CHEMBL1200633

> <chembl_pref_name>
IVERMECTIN

$$$$

     RDKit          2D

 24 26  0  0  0  0  0  0  0  0999 V2000
    2.7792   -1.4292    0.0000 N   0  0  0  0  0  0  0  0  0  0  0  0
    2.2750   -1.9292    0.0000 C   0  0  0  0  0  0  0  0  0  0  0  0
    3.4792   -1.4292    0.0000 C   0  0  0  0  0  0  0  0  0  0  0  0
    2.1625   -1.0750    0.0000 C   0  0  0  0  0  0  0  0  0  0  0  0
    1.6625   -1.5750    0.0000 C   0  0  0  0  0  0  0  0  0  0  0  0
    2.2750   -2.6375    0.0000 C   0  0  0  0  0  0  0  0  0  0  0  0
    3.9875   -1.9292    0.0000 C   0  0  0  0  0  0  0  0  0  0  0  0
    2.7792   -3.1375    0.0000 O   0  0  0  0  0  0  0  0  0  0  0  0
    3.9875   -2.6375    0.0000 O   0  0  0  0  0  0  0  0  0  0  0  0
    3.4875   -3.1375    0.0000 C   0  0  0  0  0  0  0  0  0  0  0  0
    2.1542   -0.3667    0.0000 C   0  0  0  0  0  0  0  0  0  0  0  0
    1.6667   -2.9917    0.0000 C   0  0  0  0  0  0  0  0  0  0  0  0
    1.0500   -1.9292    0.0000 C   0  0  0  0  0  0  0  0  0  0  0  0
    2.7667   -0.0042    0.0000 C   0  0  0  0  0  0  0  0  0  0  0  0
    2.7667    0.7000    0.0000 N   0  0  0  0  0  0  0  0  0  0  0  0
    1.0542   -2.6417    0.0000 C   0  0  0  0  0  0  0  0  0  0  0  0
    0.4292   -1.5792    0.0000 Cl  0  0  0  0  0  0  0  0  0  0  0  0
    3.6625   -0.7417    0.0000 C   0  0  0  0  0  0  0  0  0  0  0  0
    4.6667   -1.7417    0.0000 C   0  0  0  0  0  0  0  0  0  0  0  0
    1.5417   -0.0125    0.0000 C   0  0  0  0  0  0  0  0  0  0  0  0
    2.1542    1.0500    0.0000 C   0  0  0  0  0  0  0  0  0  0  0  0
    3.3792    1.0583    0.0000 C   0  0  0  0  0  0  0  0  0  0  0  0
    4.3417   -0.5542    0.0000 C   0  0  0  0  0  0  0  0  0  0  0  0
    4.8500   -1.0542    0.0000 C   0  0  0  0  0  0  0  0  0  0  0  0
  2  1  1  0
  3  1  1  0
  4  1  1  0
  5  2  1  0
  6  2  2  0
  7  3  2  0
  8  6  1  0
  9  7  1  0
 10  9  1  0
 11  4  1  0
 12  6  1  0
 13  5  2  0
 14 11  1  0
 15 14  1  0
 16 12  2  0
 17 13  1  0
 18  3  1  0
 19  7  1  0
 20 11  1  0
 21 15  1  0
 22 15  1  0
 23 18  2  0
 24 23  1  0
 24 19  2  0
 10  8  1  0
 16 13  1  0
M  END
> <chembl_id>
CHEMBL2107626

> <chembl_pref_name>
TRABOXOPINE

$$$$
 
     RDKit          2D

 14 13  0  0  0  0  0  0  0  0999 V2000
    1.7728   -0.2061    0.0000 C   0  0  0  0  0  0  0  0  0  0  0  0
    1.0582    0.2061    0.0000 C   0  0  0  0  0  0  0  0  0  0  0  0
    0.3435   -0.2061    0.0000 C   0  0  0  0  0  0  0  0  0  0  0  0
   -0.3435    0.2061    0.0000 C   0  0  0  0  0  0  0  0  0  0  0  0
   -1.0582   -0.2061    0.0000 C   0  0  0  0  0  0  0  0  0  0  0  0
   -1.7728    0.2061    0.0000 C   0  0  0  0  0  0  0  0  0  0  0  0
   -2.4874   -0.2061    0.0000 N   0  0  0  0  0  0  0  0  0  0  0  0
   -3.2020    0.2061    0.0000 C   0  0  0  0  0  0  0  0  0  0  0  0
   -3.9166   -0.2061    0.0000 C   0  0  0  0  0  0  0  0  0  0  0  0
   -3.2020    1.0307    0.0000 O   0  0  0  0  0  0  0  0  0  0  0  0
    1.7728   -1.0307    0.0000 O   0  0  0  0  0  0  0  0  0  0  0  0
    2.4874    0.2061    0.0000 N   0  0  0  0  0  0  0  0  0  0  0  0
    3.2020   -0.2061    0.0000 C   0  0  0  0  0  0  0  0  0  0  0  0
    3.9166    0.2061    0.0000 C   0  0  0  0  0  0  0  0  0  0  0  0
  1  2  1  0
  2  3  1  0
  3  4  1  0
  4  5  1  0
  5  6  1  0
  6  7  1  0
  8  7  1  0
  8  9  1  0
  8 10  2  0
  1 11  2  0
  1 12  1  0
 12 13  1  0
 13 14  1  0
M  END
> <chembl_id>
CHEMBL5173119

> <chembl_pref_name>
None

$$$$

     RDKit          2D

 24 26  0  0  0  0  0  0  0  0999 V2000
   -1.8500   -0.1417    0.0000 N   0  0  0  0  0  0  0  0  0  0  0  0
   -1.4833    0.9083    0.0000 N   0  0  0  0  0  0  0  0  0  0  0  0
   -2.9875   -0.1542    0.0000 N   0  0  0  0  0  0  0  0  0  0  0  0
   -1.2208   -1.0792    0.0000 C   0  0  0  0  0  0  0  0  0  0  0  0
   -2.4000    1.6083    0.0000 C   0  0  0  0  0  0  0  0  0  0  0  0
   -3.3458    0.9583    0.0000 C   0  0  0  0  0  0  0  0  0  0  0  0
   -0.1625   -1.1000    0.0000 C   0  0  0  0  0  0  0  0  0  0  0  0
    0.5167   -2.0542    0.0000 C   0  0  0  0  0  0  0  0  0  0  0  0
    1.5917   -2.0542    0.0000 C   0  0  0  0  0  0  0  0  0  0  0  0
   -1.8333   -2.1375    0.0000 C   0  0  0  0  0  0  0  0  0  0  0  0
   -4.3458    1.5083    0.0000 C   0  0  0  0  0  0  0  0  0  0  0  0
   -2.4000    2.7458    0.0000 C   0  0  0  0  0  0  0  0  0  0  0  0
    2.8000   -2.0542    0.0000 C   0  0  0  0  0  0  0  0  0  0  0  0
   -0.1458   -3.1125    0.0000 C   0  0  0  0  0  0  0  0  0  0  0  0
   -4.3458    2.6125    0.0000 C   0  0  0  0  0  0  0  0  0  0  0  0
   -3.5250    3.2208    0.0000 C   0  0  0  0  0  0  0  0  0  0  0  0
   -1.1625   -3.1125    0.0000 C   0  0  0  0  0  0  0  0  0  0  0  0
    3.3542   -0.8167    0.0000 C   0  0  0  0  0  0  0  0  0  0  0  0
   -3.0083   -2.1375    0.0000 O   0  0  0  0  0  0  0  0  0  0  0  0
    1.5917   -3.2125    0.0000 C   0  0  0  0  0  0  0  0  0  0  0  0
    1.5917   -0.8792    0.0000 C   0  0  0  0  0  0  0  0  0  0  0  0
    4.3417   -0.1542    0.0000 C   0  0  0  0  0  0  0  0  0  0  0  0
    2.3792   -1.4375    0.0000 C   0  0  0  0  0  0  0  0  0  0  0  0
    3.9917   -1.7042    0.0000 C   0  0  0  0  0  0  0  0  0  0  0  0
  2  1  1  0
  3  1  1  0
  4  1  1  0
  5  2  2  0
  6  3  2  0
  7  4  1  0
  8  7  2  0
  9  8  1  0
 10  4  2  0
 11  6  1  0
 12  5  1  0
 13  9  1  0
 14 17  2  0
 15 11  2  0
 16 12  2  0
 17 10  1  0
 18 13  1  0
 19 10  1  0
 20  9  1  0
 21  9  1  0
 22 18  1  0
 23 18  1  0
 24 18  1  0
  5  6  1  0
  8 14  1  0
 16 15  1  0
M  END
> <chembl_id>
CHEMBL1886986

> <chembl_pref_name>
OCTRIZOLE

$$$$

     RDKit          2D

 33 35  0  0  0  0  0  0  0  0999 V2000
    0.5766    0.3997    0.0000 C   0  0  0  0  0  0  0  0  0  0  0  0
    1.2911    0.8122    0.0000 C   0  0  0  0  0  0  0  0  0  0  0  0
    2.0056    0.3997    0.0000 C   0  0  0  0  0  0  0  0  0  0  0  0
    2.0056   -0.4253    0.0000 N   0  0  0  0  0  0  0  0  0  0  0  0
    1.2911   -0.8378    0.0000 C   0  0  0  0  0  0  0  0  0  0  0  0
    0.5766   -0.4253    0.0000 C   0  0  0  0  0  0  0  0  0  0  0  0
    2.7200   -0.8378    0.0000 C   0  0  0  0  0  0  0  0  0  0  0  0
    2.7200   -1.6628    0.0000 C   0  0  0  0  0  0  0  0  0  0  0  0
    3.4345   -2.0753    0.0000 C   0  0  0  0  0  0  0  0  0  0  0  0
    4.1490   -1.6628    0.0000 C   0  0  0  0  0  0  0  0  0  0  0  0
    4.8635   -2.0753    0.0000 C   0  0  0  0  0  0  0  0  0  0  0  0
    5.5779   -1.6628    0.0000 C   0  0  0  0  0  0  0  0  0  0  0  0
    6.2924   -2.0753    0.0000 C   0  0  0  0  0  0  0  0  0  0  0  0
    6.2924   -2.9003    0.0000 C   0  0  0  0  0  0  0  0  0  0  0  0
    7.0069   -3.3128    0.0000 C   0  0  0  0  0  0  0  0  0  0  0  0
    7.0069   -4.1378    0.0000 O   0  0  0  0  0  0  0  0  0  0  0  0
    7.7213   -2.9003    0.0000 O   0  0  0  0  0  0  0  0  0  0  0  0
    4.8635   -3.7253    0.0000 N   0  0  0  0  0  0  0  0  0  0  0  0
    5.5779   -3.3128    0.0000 C   0  0  0  0  0  0  0  0  0  0  0  0
    5.5779   -0.8378    0.0000 C   0  0  0  0  0  0  0  0  0  0  0  0
    4.8635   -0.4253    0.0000 C   0  0  0  0  0  0  0  0  0  0  0  0
    4.1490   -0.8378    0.0000 C   0  0  0  0  0  0  0  0  0  0  0  0
    3.4345   -0.4253    0.0000 C   0  0  0  0  0  0  0  0  0  0  0  0
   12.0082   -2.9003    0.0000 O   0  0  0  0  0  0  0  0  0  0  0  0
   12.7226   -3.3128    0.0000 C   0  0  0  0  0  0  0  0  0  0  0  0
   13.4371   -2.9003    0.0000 C   0  0  0  0  0  0  0  0  0  0  0  0
   14.1516   -3.3128    0.0000 O   0  0  0  0  0  0  0  0  0  0  0  0
    8.4358   -3.3128    0.0000 C   0  0  0  0  0  0  0  0  0  0  0  0
    9.1503   -2.9003    0.0000 C   0  0  0  0  0  0  0  0  0  0  0  0
    9.8647   -3.3128    0.0000 O   0  0  0  0  0  0  0  0  0  0  0  0
   10.5792   -2.9003    0.0000 C   0  0  0  0  0  0  0  0  0  0  0  0
   11.2937   -3.3128    0.0000 C   0  0  0  0  0  0  0  0  0  0  0  0
   14.8660   -2.9003    0.0000 C   0  0  0  0  0  0  0  0  0  0  0  0
  1  2  1  0
  3  4  1  0
  3  2  1  0
  4  5  1  0
  4  7  1  0
  5  6  1  0
  6  1  1  0
  7 23  2  0
  8  7  1  0
  8  9  2  0
  9 10  1  0
 10 22  2  0
 11 10  1  0
 11 12  2  0
 12 13  1  0
 13 14  2  0
 14 19  1  0
 14 15  1  0
 15 16  2  0
 17 15  1  0
 17 28  1  0
 19 18  3  0
 20 12  1  0
 21 20  2  0
 22 21  1  0
 22 23  1  0
 24 25  1  0
 25 26  1  0
 27 26  1  0
 27 33  1  0
 29 30  1  0
 29 28  1  0
 31 32  1  0
 31 30  1  0
 32 24  1  0
M  END
> <chembl_id>
CHEMBL2364601

> <chembl_pref_name>
AFTOBETIN

$$$$

     RDKit          2D

 29 31  0  0  0  0  0  0  0  0999 V2000
   -0.7955    1.6873    0.0000 C   0  0  0  0  0  0  0  0  0  0  0  0
   -1.5388    1.3293    0.0000 C   0  0  0  0  0  0  0  0  0  0  0  0
   -1.7224    0.5251    0.0000 C   0  0  0  0  0  0  0  0  0  0  0  0
   -1.2080   -0.1200    0.0000 N   0  0  0  0  0  0  0  0  0  0  0  0
   -0.3831   -0.1200    0.0000 C   0  0  0  0  0  0  0  0  0  0  0  0
    0.1313    0.5251    0.0000 C   0  0  0  0  0  0  0  0  0  0  0  0
   -0.0522    1.3293    0.0000 C   0  0  0  0  0  0  0  0  0  0  0  0
   -2.5108    0.2818    0.0000 C   0  0  0  0  0  0  0  0  0  0  0  0
   -3.1155    0.8430    0.0000 C   0  0  0  0  0  0  0  0  0  0  0  0
   -2.9320    1.6474    0.0000 C   0  0  0  0  0  0  0  0  0  0  0  0
   -2.1436    1.8905    0.0000 C   0  0  0  0  0  0  0  0  0  0  0  0
   -1.6205   -0.8344    0.0000 C   0  0  0  0  0  0  0  0  0  0  0  0
   -1.2080   -1.5489    0.0000 C   0  0  0  0  0  0  0  0  0  0  0  0
   -1.6205   -2.2634    0.0000 O   0  0  0  0  0  0  0  0  0  0  0  0
   -0.3830   -1.5489    0.0000 O   0  0  0  0  0  0  0  0  0  0  0  0
   -0.0251   -0.8633    0.0000 O   0  0  0  0  0  0  0  0  0  0  0  0
    0.9356    0.3415    0.0000 N   0  0  0  0  0  0  0  0  0  0  0  0
    1.4968    0.9463    0.0000 C   0  0  0  0  0  0  0  0  0  0  0  0
    2.3011    0.7627    0.0000 C   0  0  0  0  0  0  0  0  0  0  0  0
    1.2536    1.7346    0.0000 C   0  0  0  0  0  0  0  0  0  0  0  0
    1.8147    2.3394    0.0000 O   0  0  0  0  0  0  0  0  0  0  0  0
    0.4493    1.9182    0.0000 O   0  0  0  0  0  0  0  0  0  0  0  0
    2.8622    1.3675    0.0000 C   0  0  0  0  0  0  0  0  0  0  0  0
    3.6665    1.1839    0.0000 C   0  0  0  0  0  0  0  0  0  0  0  0
    3.9097    0.3955    0.0000 C   0  0  0  0  0  0  0  0  0  0  0  0
    4.7140    0.2120    0.0000 C   0  0  0  0  0  0  0  0  0  0  0  0
    5.2752    0.8168    0.0000 C   0  0  0  0  0  0  0  0  0  0  0  0
    5.0320    1.6051    0.0000 C   0  0  0  0  0  0  0  0  0  0  0  0
    4.2277    1.7887    0.0000 C   0  0  0  0  0  0  0  0  0  0  0  0
  1  2  1  0
  3  4  1  0
  4  5  1  0
  5  6  1  0
  6  7  1  0
  7  1  1  0
  2 11  2  0
  2  3  1  0
  3  8  2  0
  8  9  1  0
  9 10  2  0
 10 11  1  0
  4 12  1  0
 12 13  1  0
 13 14  1  0
 13 15  2  0
  5 16  2  0
  6 17  1  6
 18 17  1  0
 18 19  1  6
 20 21  1  0
 20 22  2  0
 19 23  1  0
 23 24  1  0
 24 25  1  0
 24 29  2  0
 25 26  2  0
 26 27  1  0
 27 28  2  0
 28 29  1  0
 18 20  1  0
M  END
> <chembl_id>
CHEMBL1192519

> <chembl_pref_name>
BENAZEPRILAT

$$$$

     RDKit          2D

 19 21  0  0  0  0  0  0  0  0999 V2000
   -1.3250   -0.3792    0.0000 C   0  0  0  0  0  0  0  0  0  0  0  0
   -2.7000   -0.3792    0.0000 C   0  0  0  0  0  0  0  0  0  0  0  0
   -1.9708   -2.4250    0.0000 N   0  0  0  0  0  0  0  0  0  0  0  0
   -3.0458   -1.7125    0.0000 N   0  0  0  0  0  0  0  0  0  0  0  0
   -0.9458   -1.6542    0.0000 C   0  0  0  0  0  0  0  0  0  0  0  0
   -0.5208    0.6833    0.0000 C   0  0  0  0  0  0  0  0  0  0  0  0
   -0.8208    2.0000    0.0000 N   0  0  0  0  0  0  0  0  0  0  0  0
    0.8042    0.5000    0.0000 C   0  0  0  0  0  0  0  0  0  0  0  0
   -3.5458    0.5958    0.0000 N   0  0  0  0  0  0  0  0  0  0  0  0
    1.6167    1.5958    0.0000 C   0  0  0  0  0  0  0  0  0  0  0  0
    2.9875    1.4333    0.0000 C   0  0  0  0  0  0  0  0  0  0  0  0
   -4.3458   -2.1667    0.0000 C   0  0  0  0  0  0  0  0  0  0  0  0
    0.3167   -2.0792    0.0000 C   0  0  0  0  0  0  0  0  0  0  0  0
    3.7917    2.5458    0.0000 Cl  0  0  0  0  0  0  0  0  0  0  0  0
   -2.0583    2.5458    0.0000 C   0  0  0  0  0  0  0  0  0  0  0  0
    1.3375   -0.7042    0.0000 C   0  0  0  0  0  0  0  0  0  0  0  0
   -3.2458    1.9625    0.0000 C   0  0  0  0  0  0  0  0  0  0  0  0
    2.6750   -0.8875    0.0000 C   0  0  0  0  0  0  0  0  0  0  0  0
    3.5375    0.1708    0.0000 C   0  0  0  0  0  0  0  0  0  0  0  0
  2  1  2  0
  3  5  2  0
  4  2  1  0
  5  1  1  0
  6  1  1  0
  7  6  2  0
  8  6  1  0
  9  2  1  0
 10  8  1  0
 11 10  2  0
 12  4  1  0
 13  5  1  0
 14 11  1  0
 15  7  1  0
 16  8  2  0
 17  9  1  0
 18 16  1  0
 19 18  2  0
  4  3  1  0
 15 17  1  0
 11 19  1  0
M  END
> <chembl_id>
CHEMBL174697

> <chembl_pref_name>
ZOMETAPINE

$$$$

     RDKit          2D

 26 30  0  0  1  0  0  0  0  0999 V2000
   -0.6458    0.0208    0.0000 N   0  0  0  0  0  0  0  0  0  0  0  0
    0.0000   -1.1917    0.0000 C   0  0  0  0  0  0  0  0  0  0  0  0
    0.0417    1.1083    0.0000 C   0  0  0  0  0  0  0  0  0  0  0  0
   -0.6625   -2.3750    0.0000 C   0  0  0  0  0  0  0  0  0  0  0  0
   -1.9708   -0.2542    0.0000 C   0  0  0  0  0  0  0  0  0  0  0  0
    1.3500    1.1083    0.0000 C   0  0  0  0  0  0  0  0  0  0  0  0
    2.0167   -0.0792    0.0000 C   0  0  0  0  0  0  0  0  0  0  0  0
    1.3125   -1.2042    0.0000 C   0  0  0  0  0  0  0  0  0  0  0  0
   -1.9708   -2.0292    0.0000 C   0  0  0  0  0  0  0  0  0  0  0  0
    1.9667   -2.4167    0.0000 N   0  0  0  0  0  0  0  0  0  0  0  0
   -0.5958    2.3000    0.0000 C   0  0  0  0  0  0  0  0  0  0  0  0
   -0.0125   -3.5917    0.0000 C   0  0  0  0  0  0  0  0  0  0  0  0
    1.3000   -3.5792    0.0000 C   0  0  0  0  0  0  0  0  0  0  0  0
   -1.9750    2.3125    0.0000 O   0  0  0  0  0  0  0  0  0  0  0  0
    3.3667   -0.0917    0.0000 C   0  0  0  0  0  0  0  0  0  0  0  0
    2.9792    0.8500    0.0000 C   0  0  0  0  0  0  0  0  0  0  0  0
    0.1042    3.4333    0.0000 O   0  0  0  0  0  0  0  0  0  0  0  0
   -3.0833    0.3750    0.0000 C   0  0  0  0  0  0  0  0  0  0  0  0
    3.3542   -2.4042    0.0000 C   0  0  0  0  0  0  0  0  0  0  0  0
   -3.1833   -2.7167    0.0000 C   0  0  0  0  0  0  0  0  0  0  0  0
    4.0375   -1.2667    0.0000 C   0  0  0  0  0  0  0  0  0  0  0  0
    1.3750    3.4208    0.0000 C   0  0  0  0  0  0  0  0  0  0  0  0
    4.3167    0.4875    0.0000 C   0  0  0  0  0  0  0  0  0  0  0  0
   -4.2875   -0.2542    0.0000 C   0  0  0  0  0  0  0  0  0  0  0  0
   -4.3333   -2.0042    0.0000 C   0  0  0  0  0  0  0  0  0  0  0  0
    0.3625   -2.1542    0.0000 H   0  0  0  0  0  0  0  0  0  0  0  0
  2  1  1  0
  3  1  1  0
  4  2  2  0
  5  1  1  0
  6  3  2  0
  7  6  1  0
  8  2  1  0
  9  5  2  0
 10  8  1  0
 11  3  1  0
 12  4  1  0
 13 10  1  0
 14 11  2  0
 15  7  1  0
  7 16  1  1
 17 11  1  0
 18  5  1  0
 19 10  1  0
 20  9  1  0
 21 15  1  0
 22 17  1  0
 23 16  1  0
 24 18  2  0
 25 24  1  0
  8 26  1  1
  4  9  1  0
  8  7  1  0
 20 25  2  0
 12 13  1  0
 19 21  1  0
M  END
> <chembl_id>
CHEMBL1163488

> <chembl_pref_name>
APOVINCAMINE

$$$$

     RDKit          2D

 24 27  0  0  0  0  0  0  0  0999 V2000
   -0.0458   -0.8375    0.0000 C   0  0  0  0  0  0  0  0  0  0  0  0
   -0.0458    0.3833    0.0000 C   0  0  0  0  0  0  0  0  0  0  0  0
   -1.1208    0.9958    0.0000 N   0  0  0  0  0  0  0  0  0  0  0  0
   -1.1208   -1.4500    0.0000 C   0  0  0  0  0  0  0  0  0  0  0  0
    1.0250    1.0083    0.0000 C   0  0  0  0  0  0  0  0  0  0  0  0
   -2.1958   -0.8375    0.0000 C   0  0  0  0  0  0  0  0  0  0  0  0
   -2.1958    0.3833    0.0000 C   0  0  0  0  0  0  0  0  0  0  0  0
    2.0792    0.4000    0.0000 C   0  0  0  0  0  0  0  0  0  0  0  0
    1.0250   -1.4500    0.0000 C   0  0  0  0  0  0  0  0  0  0  0  0
    1.0042    2.2708    0.0000 C   0  0  0  0  0  0  0  0  0  0  0  0
    3.1750    1.0333    0.0000 O   0  0  0  0  0  0  0  0  0  0  0  0
    2.0792   -0.8375    0.0000 C   0  0  0  0  0  0  0  0  0  0  0  0
    2.0792    2.8833    0.0000 C   0  0  0  0  0  0  0  0  0  0  0  0
    3.1750    2.2500    0.0000 C   0  0  0  0  0  0  0  0  0  0  0  0
   -1.1208   -2.4667    0.0000 O   0  0  0  0  0  0  0  0  0  0  0  0
   -1.1208    2.3333    0.0000 C   0  0  0  0  0  0  0  0  0  0  0  0
    1.0250   -2.7292    0.0000 O   0  0  0  0  0  0  0  0  0  0  0  0
   -3.2708   -1.4500    0.0000 C   0  0  0  0  0  0  0  0  0  0  0  0
   -3.2708    0.9958    0.0000 C   0  0  0  0  0  0  0  0  0  0  0  0
    4.3375    1.6458    0.0000 C   0  0  0  0  0  0  0  0  0  0  0  0
    4.0792    3.1708    0.0000 C   0  0  0  0  0  0  0  0  0  0  0  0
    2.3375   -3.1542    0.0000 C   0  0  0  0  0  0  0  0  0  0  0  0
   -4.3458   -0.8375    0.0000 C   0  0  0  0  0  0  0  0  0  0  0  0
   -4.3458    0.3833    0.0000 C   0  0  0  0  0  0  0  0  0  0  0  0
  2  1  1  0
  3  2  1  0
  4  1  1  0
  5  2  2  0
  6  4  1  0
  7  6  2  0
  8 12  2  0
  9  1  2  0
 10  5  1  0
 11  8  1  0
 12  9  1  0
 13 10  2  0
 14 11  1  0
 15  4  2  0
 16  3  1  0
 17  9  1  0
 18  6  1  0
 19  7  1  0
 20 14  1  0
 21 14  1  0
 22 17  1  0
 23 18  2  0
 24 23  1  0
  5  8  1  0
  3  7  1  0
 13 14  1  0
 19 24  2  0
M  END
> <chembl_id>
CHEMBL285852

> <chembl_pref_name>
ACRONINE

$$$$

     RDKit          2D

 27 28  0  0  0  0  0  0  0  0999 V2000
   -3.1333    2.2750    0.0000 C   0  0  0  0  0  0  0  0  0  0  0  0
    2.4875    2.2333    0.0000 C   0  0  0  0  0  0  0  0  0  0  0  0
    3.4292    1.7458    0.0000 N   0  0  0  0  0  0  0  0  0  0  0  0
   -2.2333    1.7458    0.0000 N   0  0  0  0  0  0  0  0  0  0  0  0
   -4.1458    1.8750    0.0000 O   0  0  0  0  0  0  0  0  0  0  0  0
    1.5000    1.7833    0.0000 O   0  0  0  0  0  0  0  0  0  0  0  0
    3.4167    0.7208    0.0000 C   0  0  0  0  0  0  0  0  0  0  0  0
   -2.2333    0.7833    0.0000 C   0  0  0  0  0  0  0  0  0  0  0  0
   -2.2583   -1.3042    0.0000 C   0  0  0  0  0  0  0  0  0  0  0  0
    3.4875   -1.3750    0.0000 C   0  0  0  0  0  0  0  0  0  0  0  0
   -1.3208    0.2625    0.0000 C   0  0  0  0  0  0  0  0  0  0  0  0
   -3.1583    0.2708    0.0000 C   0  0  0  0  0  0  0  0  0  0  0  0
    2.5167    0.1583    0.0000 C   0  0  0  0  0  0  0  0  0  0  0  0
    4.3417    0.2250    0.0000 C   0  0  0  0  0  0  0  0  0  0  0  0
    2.5167   -0.9000    0.0000 C   0  0  0  0  0  0  0  0  0  0  0  0
    4.3417   -0.8292    0.0000 C   0  0  0  0  0  0  0  0  0  0  0  0
   -1.3208   -0.7917    0.0000 C   0  0  0  0  0  0  0  0  0  0  0  0
   -3.1583   -0.7792    0.0000 C   0  0  0  0  0  0  0  0  0  0  0  0
    3.4792   -2.4292    0.0000 O   0  0  0  0  0  0  0  0  0  0  0  0
   -2.2583   -2.3542    0.0000 O   0  0  0  0  0  0  0  0  0  0  0  0
    0.6542   -3.0125    0.0000 O   0  0  0  0  0  0  0  0  0  0  0  0
    2.4875    3.2333    0.0000 C   0  0  0  0  0  0  0  0  0  0  0  0
   -3.0958    3.2750    0.0000 C   0  0  0  0  0  0  0  0  0  0  0  0
    2.6125   -2.9917    0.0000 C   0  0  0  0  0  0  0  0  0  0  0  0
   -1.3000   -2.9667    0.0000 C   0  0  0  0  0  0  0  0  0  0  0  0
   -0.3083   -2.4542    0.0000 C   0  0  0  0  0  0  0  0  0  0  0  0
    1.6000   -2.4542    0.0000 C   0  0  0  0  0  0  0  0  0  0  0  0
  2  3  1  0
  3  7  1  0
  4  1  1  0
  5  1  2  0
  6  2  2  0
  7 14  2  0
  8  4  1  0
  9 18  2  0
 10 19  1  0
 11  8  1  0
 12  8  2  0
 13 15  2  0
 14 16  1  0
 15 10  1  0
 16 10  2  0
 17 11  2  0
 18 12  1  0
 19 24  1  0
 20  9  1  0
 21 26  1  0
 22  2  1  0
 23  1  1  0
 24 27  1  0
 25 20  1  0
 26 25  1  0
 27 21  1  0
 17  9  1  0
 13  7  1  0
M  END
> <chembl_id>
CHEMBL2104259

> <chembl_pref_name>
DIAMFENETIDE

$$$$

     RDKit          2D

 64 69  0  0  1  0  0  0  0  0999 V2000
   -1.7958   -0.3667    0.0000 N   0  0  0  0  0  0  0  0  0  0  0  0
   -0.5458    0.7833    0.0000 N   0  0  0  0  0  0  0  0  0  0  0  0
   -1.1875   -0.1500    0.0000 C   0  0  0  0  0  0  0  0  0  0  0  0
    0.0417    0.5500    0.0000 C   0  0  0  0  0  0  0  0  0  0  0  0
    1.0542    1.0750    0.0000 N   0  0  0  0  0  0  0  0  0  0  0  0
   -1.1000    0.4833    0.0000 C   0  0  0  0  0  0  0  0  0  0  0  0
   -0.8708   -0.8167    0.0000 N   0  0  0  0  0  0  0  0  0  0  0  0
    1.7042   -1.1292    0.0000 C   0  0  0  0  0  0  0  0  0  0  0  0
    1.5375    0.6708    0.0000 C   0  0  0  0  0  0  0  0  0  0  0  0
   -1.3250   -1.1667    0.0000 C   0  0  0  0  0  0  0  0  0  0  0  0
    2.1542   -0.7750    0.0000 C   0  0  0  0  0  0  0  0  0  0  0  0
   -1.9083   -1.0167    0.0000 C   0  0  0  0  0  0  0  0  0  0  0  0
    0.1792   -0.8667    0.0000 C   0  0  0  0  0  0  0  0  0  0  0  0
    2.4000   -1.8792    0.0000 C   0  0  0  0  0  0  0  0  0  0  0  0
    2.0792   -0.1917    0.0000 N   0  0  0  0  0  0  0  0  0  0  0  0
    1.8042   -1.7250    0.0000 N   0  0  0  0  0  0  0  0  0  0  0  0
    0.4417    1.0208    0.0000 C   0  0  0  0  0  0  0  0  0  0  0  0
    2.5875   -2.4542    0.0000 C   0  0  0  0  0  0  0  0  0  0  0  0
    0.6750   -1.2250    0.0000 O   0  0  0  0  0  0  0  0  0  0  0  0
   -0.3458   -1.1292    0.0000 C   0  0  0  0  0  0  0  0  0  0  0  0
    1.5167    0.0833    0.0000 C   0  0  0  0  0  0  0  0  0  0  0  0
    1.1542   -0.8875    0.0000 C   0  0  0  0  0  0  0  0  0  0  0  0
   -2.2083    0.0583    0.0000 C   0  0  0  0  0  0  0  0  0  0  0  0
   -2.5500   -1.1125    0.0000 C   0  0  0  0  0  0  0  0  0  0  0  0
    2.1917   -2.9167    0.0000 N   0  0  0  0  0  0  0  0  0  0  0  0
   -0.8500   -0.4042    0.0000 O   0  0  0  0  0  0  0  0  0  0  0  0
   -1.5958    0.8708    0.0000 C   0  0  0  0  0  0  0  0  0  0  0  0
    0.0792    0.0625    0.0000 O   0  0  0  0  0  0  0  0  0  0  0  0
   -2.9500   -0.6500    0.0000 C   0  0  0  0  0  0  0  0  0  0  0  0
    2.0875    0.9208    0.0000 O   0  0  0  0  0  0  0  0  0  0  0  0
    2.7167   -1.0000    0.0000 O   0  0  0  0  0  0  0  0  0  0  0  0
   -1.2083   -1.7667    0.0000 O   0  0  0  0  0  0  0  0  0  0  0  0
    0.1917   -0.3542    0.0000 O   0  0  0  0  0  0  0  0  0  0  0  0
    3.1875   -2.5542    0.0000 C   0  0  0  0  0  0  0  0  0  0  0  0
    2.8167   -1.4375    0.0000 O   0  0  0  0  0  0  0  0  0  0  0  0
   -2.7708   -0.0792    0.0000 C   0  0  0  0  0  0  0  0  0  0  0  0
   -0.3625   -1.7542    0.0000 C   0  0  0  0  0  0  0  0  0  0  0  0
   -3.5458   -0.7917    0.0000 O   0  0  0  0  0  0  0  0  0  0  0  0
    1.2042    1.6458    0.0000 C   0  0  0  0  0  0  0  0  0  0  0  0
   -0.5833    1.3875    0.0000 C   0  0  0  0  0  0  0  0  0  0  0  0
   -1.3958    1.4833    0.0000 C   0  0  0  0  0  0  0  0  0  0  0  0
   -1.0083    2.6458    0.0000 C   0  0  0  0  0  0  0  0  0  0  0  0
   -0.8208    3.2208    0.0000 N   0  0  0  0  0  0  0  0  0  0  0  0
    0.2125    1.5708    0.0000 C   0  0  0  0  0  0  0  0  0  0  0  0
    3.5750   -2.0917    0.0000 O   0  0  0  0  0  0  0  0  0  0  0  0
   -0.7958    1.6083    0.0000 C   0  0  0  0  0  0  0  0  0  0  0  0
   -1.8000    1.9333    0.0000 C   0  0  0  0  0  0  0  0  0  0  0  0
   -0.6000    2.1875    0.0000 C   0  0  0  0  0  0  0  0  0  0  0  0
   -1.6083    2.5208    0.0000 C   0  0  0  0  0  0  0  0  0  0  0  0
    1.0000   -0.2375    0.0000 C   0  0  0  0  0  0  0  0  0  0  0  0
    0.6792    1.9750    0.0000 C   0  0  0  0  0  0  0  0  0  0  0  0
    1.1792   -0.3500    0.0000 C   0  0  0  0  0  0  0  0  0  0  0  0
    2.4042   -3.4792    0.0000 C   0  0  0  0  0  0  0  0  0  0  0  0
    3.3917   -3.1292    0.0000 C   0  0  0  0  0  0  0  0  0  0  0  0
    0.1542   -2.0667    0.0000 C   0  0  0  0  0  0  0  0  0  0  0  0
   -0.8875   -2.0417    0.0000 C   0  0  0  0  0  0  0  0  0  0  0  0
   -1.3000    3.5958    0.0000 C   0  0  0  0  0  0  0  0  0  0  0  0
    0.5292    0.1458    0.0000 C   0  0  0  0  0  0  0  0  0  0  0  0
    3.0042   -3.5917    0.0000 C   0  0  0  0  0  0  0  0  0  0  0  0
   -0.9000   -2.6542    0.0000 C   0  0  0  0  0  0  0  0  0  0  0  0
    0.1542   -2.6750    0.0000 C   0  0  0  0  0  0  0  0  0  0  0  0
   -0.3833   -2.9667    0.0000 C   0  0  0  0  0  0  0  0  0  0  0  0
   -0.5464    1.1749    0.0000 H   0  0  0  0  0  0  0  0  0  0  0  0
   -1.9600   -2.0154    0.0000 H   0  0  0  0  0  0  0  0  0  0  0  0
  2  6  1  0
  3  1  1  0
  4  2  1  0
  5 17  1  0
  6  3  1  0
  7 10  1  0
  8 22  1  0
  9  5  1  0
 10 12  1  0
 11  8  1  0
 12  1  1  0
 13 20  1  0
 14 16  1  0
 15 21  1  0
  8 16  1  1
 17  4  1  0
 18 14  1  0
 19 13  1  0
 20  7  1  0
 21  9  1  0
 22 19  1  0
 23  1  1  0
 24 12  1  0
 25 18  2  0
 26  3  2  0
  6 27  1  6
 28  4  2  0
 29 36  1  0
 30  9  2  0
 31 11  2  0
 32 10  2  0
 33 13  2  0
 34 18  1  0
 35 14  2  0
 36 23  1  0
 20 37  1  6
 38 29  2  0
 39  5  1  0
 40  2  1  0
 41 27  1  0
 42 49  2  0
 43 42  1  0
 44 17  1  0
 45 34  1  0
 46 41  1  0
 47 41  2  0
 48 46  2  0
 49 47  1  0
 21 50  1  6
 51 44  1  0
 22 52  1  6
 53 25  1  0
 54 34  2  0
 55 37  2  0
 56 37  1  0
 57 43  1  0
 58 50  1  0
 59 54  1  0
 60 56  2  0
 61 55  1  0
 62 60  1  0
 24 29  1  0
 48 42  1  0
 39 51  1  0
 61 62  2  0
 11 15  1  0
 53 59  2  0
 17 63  1  1
 12 64  1  1
M  END
> <chembl_id>
CHEMBL2105803

> <chembl_pref_name>
EFEPRISTIN

$$$$

     RDKit          2D

 36 37  0  0  0  0  0  0  0  0999 V2000
    1.1000   -1.5542    0.0000 C   0  0  0  0  0  0  0  0  0  0  0  0
   -0.1708   -1.5542    0.0000 C   0  0  0  0  0  0  0  0  0  0  0  0
    0.4667   -1.1917    0.0000 C   0  0  0  0  0  0  0  0  0  0  0  0
    1.1000   -2.2917    0.0000 C   0  0  0  0  0  0  0  0  0  0  0  0
   -0.1708   -2.2917    0.0000 C   0  0  0  0  0  0  0  0  0  0  0  0
    0.4667   -2.6500    0.0000 N   0  0  0  0  0  0  0  0  0  0  0  0
   -0.7958   -1.1917    0.0000 C   0  0  0  0  0  0  0  0  0  0  0  0
    1.7250   -1.1917    0.0000 C   0  0  0  0  0  0  0  0  0  0  0  0
    0.4667   -0.3417    0.0000 C   0  0  0  0  0  0  0  0  0  0  0  0
    1.7042   -0.3417    0.0000 C   0  0  0  0  0  0  0  0  0  0  0  0
    2.9417   -0.3417    0.0000 C   0  0  0  0  0  0  0  0  0  0  0  0
    2.3167    0.0000    0.0000 C   0  0  0  0  0  0  0  0  0  0  0  0
    1.7042   -2.6292    0.0000 C   0  0  0  0  0  0  0  0  0  0  0  0
    1.1000    0.0208    0.0000 C   0  0  0  0  0  0  0  0  0  0  0  0
    3.5542    0.0000    0.0000 O   0  0  0  0  0  0  0  0  0  0  0  0
   -0.8000   -0.5417    0.0000 O   0  0  0  0  0  0  0  0  0  0  0  0
    1.7250   -0.6500    0.0000 O   0  0  0  0  0  0  0  0  0  0  0  0
    2.9417   -0.8667    0.0000 O   0  0  0  0  0  0  0  0  0  0  0  0
    4.1667   -0.3417    0.0000 C   0  0  0  0  0  0  0  0  0  0  0  0
    1.7042   -3.3250    0.0000 N   0  0  0  0  0  0  0  0  0  0  0  0
   -1.4208   -1.5417    0.0000 O   0  0  0  0  0  0  0  0  0  0  0  0
    2.3667   -1.5417    0.0000 O   0  0  0  0  0  0  0  0  0  0  0  0
   -0.7833   -2.6292    0.0000 C   0  0  0  0  0  0  0  0  0  0  0  0
   -0.1708    0.0208    0.0000 C   0  0  0  0  0  0  0  0  0  0  0  0
    1.1000    0.7500    0.0000 C   0  0  0  0  0  0  0  0  0  0  0  0
    4.1667   -1.0500    0.0000 C   0  0  0  0  0  0  0  0  0  0  0  0
    4.7250    0.0708    0.0000 C   0  0  0  0  0  0  0  0  0  0  0  0
    4.7917   -0.7417    0.0000 C   0  0  0  0  0  0  0  0  0  0  0  0
    2.3167   -3.6667    0.0000 C   0  0  0  0  0  0  0  0  0  0  0  0
    1.0917   -3.6542    0.0000 C   0  0  0  0  0  0  0  0  0  0  0  0
    2.9750   -1.2167    0.0000 C   0  0  0  0  0  0  0  0  0  0  0  0
   -2.0458   -1.1875    0.0000 C   0  0  0  0  0  0  0  0  0  0  0  0
   -0.1708    0.7500    0.0000 C   0  0  0  0  0  0  0  0  0  0  0  0
   -2.6708   -1.5417    0.0000 C   0  0  0  0  0  0  0  0  0  0  0  0
    3.6250   -1.5667    0.0000 C   0  0  0  0  0  0  0  0  0  0  0  0
    0.4667    1.1250    0.0000 C   0  0  0  0  0  0  0  0  0  0  0  0
  2  3  1  0
  3  1  1  0
  4  1  2  0
  5  6  1  0
  6  4  1  0
  7  2  1  0
  8  1  1  0
  9  3  1  0
 10 14  1  0
 11 12  1  0
 12 10  2  0
 13  4  1  0
 14  9  2  0
 15 11  1  0
 16  7  2  0
 17  8  2  0
 18 11  2  0
 19 15  1  0
 20 13  1  0
 21  7  1  0
 22  8  1  0
 23  5  1  0
 24  9  1  0
 25 14  1  0
 26 19  1  0
 27 19  1  0
 28 19  1  0
 29 20  1  0
 30 20  1  0
 31 22  1  0
 32 21  1  0
 33 24  2  0
 34 32  1  0
 35 31  1  0
 36 33  1  0
  5  2  2  0
 36 25  2  0
M  END
> <chembl_id>
CHEMBL2110624

> <chembl_pref_name>
TELUDIPINE

$$$$

     RDKit          2D

 36 40  0  0  1  0  0  0  0  0999 V2000
   -0.2208   -0.6667    0.0000 C   0  0  0  0  0  0  0  0  0  0  0  0
    1.2000    0.1625    0.0000 C   0  0  0  0  0  0  0  0  0  0  0  0
   -0.9375   -1.0625    0.0000 C   0  0  0  0  0  0  0  0  0  0  0  0
    0.4625   -1.0875    0.0000 C   0  0  0  0  0  0  0  0  0  0  0  0
   -0.2208    0.1625    0.0000 C   0  0  0  0  0  0  0  0  0  0  0  0
    1.2000   -0.6667    0.0000 C   0  0  0  0  0  0  0  0  0  0  0  0
   -0.9375   -1.8375    0.0000 C   0  0  0  0  0  0  0  0  0  0  0  0
    0.4875    0.5833    0.0000 C   0  0  0  0  0  0  0  0  0  0  0  0
    1.9875    0.4083    0.0000 C   0  0  0  0  0  0  0  0  0  0  0  0
   -1.6708   -2.2917    0.0000 C   0  0  0  0  0  0  0  0  0  0  0  0
    2.7667    0.6583    0.0000 C   0  0  0  0  0  0  0  0  0  0  0  0
    0.4625   -1.9000    0.0000 C   0  0  0  0  0  0  0  0  0  0  0  0
   -1.6458   -0.6667    0.0000 C   0  0  0  0  0  0  0  0  0  0  0  0
   -3.3625    1.0458    0.0000 N   0  0  0  0  0  0  0  0  0  0  0  0
    1.9875   -0.9167    0.0000 C   0  0  0  0  0  0  0  0  0  0  0  0
    3.5542    0.9000    0.0000 C   0  0  0  0  0  0  0  0  0  0  0  0
   -1.0083    0.3833    0.0000 C   0  0  0  0  0  0  0  0  0  0  0  0
   -0.2458   -2.2917    0.0000 C   0  0  0  0  0  0  0  0  0  0  0  0
   -2.5833    0.8250    0.0000 C   0  0  0  0  0  0  0  0  0  0  0  0
   -2.3583   -1.8750    0.0000 C   0  0  0  0  0  0  0  0  0  0  0  0
    2.4542   -0.2542    0.0000 C   0  0  0  0  0  0  0  0  0  0  0  0
   -1.6000   -0.1792    0.0000 C   0  0  0  0  0  0  0  0  0  0  0  0
   -1.2083    1.1708    0.0000 C   0  0  0  0  0  0  0  0  0  0  0  0
   -1.9958    1.3958    0.0000 C   0  0  0  0  0  0  0  0  0  0  0  0
   -2.3583    0.0458    0.0000 C   0  0  0  0  0  0  0  0  0  0  0  0
   -3.0958   -2.2417    0.0000 O   0  0  0  0  0  0  0  0  0  0  0  0
   -2.3583   -1.0875    0.0000 C   0  0  0  0  0  0  0  0  0  0  0  0
   -3.5625    1.8333    0.0000 C   0  0  0  0  0  0  0  0  0  0  0  0
    2.1042    1.4000    0.0000 O   0  0  0  0  0  0  0  0  0  0  0  0
    1.2000    0.9750    0.0000 C   0  0  0  0  0  0  0  0  0  0  0  0
   -3.9333    0.4833    0.0000 C   0  0  0  0  0  0  0  0  0  0  0  0
    4.3417    1.1458    0.0000 C   0  0  0  0  0  0  0  0  0  0  0  0
   -4.3458    2.0583    0.0000 C   0  0  0  0  0  0  0  0  0  0  0  0
   -2.9708    2.4000    0.0000 C   0  0  0  0  0  0  0  0  0  0  0  0
    1.3054   -1.6611    0.0000 H   0  0  0  0  0  0  0  0  0  0  0  0
    1.3272   -1.5897    0.0000 H   0  0  0  0  0  0  0  0  0  0  0  0
  2  8  1  0
  3  1  2  0
  4  1  1  0
  5  1  1  0
  6  4  1  0
  7  3  1  0
  8  5  1  0
  9  2  1  0
 10  7  2  0
  9 11  1  0
 12  4  1  0
 13  3  1  0
 14 19  1  0
 15  6  1  0
 16 11  3  0
  5 17  1  1
 18 12  1  0
 19 24  1  0
 20 27  1  0
 21 15  1  0
 22 17  2  0
 23 17  1  0
 24 23  2  0
 25 22  1  0
 26 20  2  0
 27 13  1  0
 28 14  1  0
  9 29  1  1
  2 30  1  1
 31 14  1  0
 32 16  1  0
 33 28  1  0
 34 28  1  0
  6  2  1  0
  7 18  1  0
 25 19  2  0
  9 21  1  0
 10 20  1  0
  6 35  1  6
  4 36  1  1
M  END
> <chembl_id>
CHEMBL2105533

> <chembl_pref_name>
TORIPRISTONE

$$$$

     RDKit          2D

 40 44  0  0  0  0  0  0  0  0999 V2000
   -3.7346   -1.7973    0.0000 C   0  0  0  0  0  0  0  0  0  0  0  0
   -4.4491   -1.3848    0.0000 C   0  0  0  0  0  0  0  0  0  0  0  0
   -5.1636   -1.7973    0.0000 C   0  0  0  0  0  0  0  0  0  0  0  0
   -5.1636   -2.6223    0.0000 C   0  0  0  0  0  0  0  0  0  0  0  0
   -4.4491   -3.0348    0.0000 C   0  0  0  0  0  0  0  0  0  0  0  0
   -3.7346   -2.6223    0.0000 C   0  0  0  0  0  0  0  0  0  0  0  0
   -3.0201   -1.3848    0.0000 C   0  0  0  0  0  0  0  0  0  0  0  0
   -2.3057   -1.7973    0.0000 C   0  0  0  0  0  0  0  0  0  0  0  0
   -2.3057   -2.6223    0.0000 C   0  0  0  0  0  0  0  0  0  0  0  0
   -3.0202   -3.0348    0.0000 C   0  0  0  0  0  0  0  0  0  0  0  0
   -3.0202   -0.5598    0.0000 C   0  0  0  0  0  0  0  0  0  0  0  0
   -2.3057   -0.1473    0.0000 C   0  0  0  0  0  0  0  0  0  0  0  0
   -1.5912   -0.5597    0.0000 C   0  0  0  0  0  0  0  0  0  0  0  0
   -1.5912   -1.3848    0.0000 C   0  0  0  0  0  0  0  0  0  0  0  0
   -3.7346   -0.1473    0.0000 C   0  0  0  0  0  0  0  0  0  0  0  0
   -3.7347    0.6777    0.0000 C   0  0  0  0  0  0  0  0  0  0  0  0
   -4.4492    1.0902    0.0000 C   0  0  0  0  0  0  0  0  0  0  0  0
   -5.1636    0.6777    0.0000 C   0  0  0  0  0  0  0  0  0  0  0  0
   -5.1636   -0.1473    0.0000 C   0  0  0  0  0  0  0  0  0  0  0  0
   -4.4491   -0.5598    0.0000 C   0  0  0  0  0  0  0  0  0  0  0  0
   -0.8066   -1.6397    0.0000 C   0  0  0  0  0  0  0  0  0  0  0  0
   -0.3217   -0.9722    0.0000 C   0  0  0  0  0  0  0  0  0  0  0  0
   -0.8066   -0.3048    0.0000 C   0  0  0  0  0  0  0  0  0  0  0  0
   -0.8066    0.5202    0.0000 O   0  0  0  0  0  0  0  0  0  0  0  0
   -1.5211    0.9327    0.0000 C   0  0  0  0  0  0  0  0  0  0  0  0
   -0.0220   -0.0499    0.0000 C   0  0  0  0  0  0  0  0  0  0  0  0
    0.6925   -0.4624    0.0000 O   0  0  0  0  0  0  0  0  0  0  0  0
    1.4070   -0.0499    0.0000 C   0  0  0  0  0  0  0  0  0  0  0  0
   -5.8781    1.0901    0.0000 C   0  0  0  0  0  0  0  0  0  0  0  0
   -6.5926    0.6776    0.0000 N   0  0  0  0  0  0  0  0  0  0  0  0
   -7.3071    1.0901    0.0000 O   0  0  0  0  0  0  0  0  0  0  0  0
   -8.0215    0.6776    0.0000 C   0  0  0  0  0  0  0  0  0  0  0  0
   -8.7360    1.0901    0.0000 N   0  0  0  0  0  0  0  0  0  0  0  0
   -8.0215   -0.1474    0.0000 O   0  0  0  0  0  0  0  0  0  0  0  0
   -9.4505    0.6776    0.0000 C   0  0  0  0  0  0  0  0  0  0  0  0
  -10.1649    1.0901    0.0000 C   0  0  0  0  0  0  0  0  0  0  0  0
   -2.3057   -0.9723    0.0000 H   0  0  0  0  0  0  0  0  0  0  0  0
   -1.5912    0.2653    0.0000 C   0  0  0  0  0  0  0  0  0  0  0  0
   -5.8781   -3.0348    0.0000 O   0  0  0  0  0  0  0  0  0  0  0  0
   -1.5912   -2.2098    0.0000 H   0  0  0  0  0  0  0  0  0  0  0  0
  1  2  1  0
  2  3  1  0
  3  4  1  0
  4  5  1  0
  5  6  2  0
 10  6  1  0
  6  1  1  0
  1  7  2  0
  8  9  1  0
  9 10  1  0
  7 11  1  0
  8  7  1  0
 14  8  1  0
 11 12  1  0
 12 13  1  0
 11 15  1  1
 15 16  2  0
 20 15  1  0
 16 17  1  0
 17 18  2  0
 18 19  1  0
 19 20  2  0
 13 23  1  0
 13 14  1  0
 14 21  1  0
 21 22  1  0
 22 23  1  0
 23 24  1  1
 24 25  1  0
 23 26  1  0
 26 27  1  0
 27 28  1  0
 18 29  1  0
 29 30  2  0
 30 31  1  0
 31 32  1  0
 32 33  1  0
 32 34  2  0
 33 35  1  0
 35 36  1  0
  8 37  1  1
 13 38  1  1
  4 39  2  0
 14 40  1  6
M  END
> <chembl_id>
CHEMBL2107728

> <chembl_pref_name>
ASOPRISNIL ECAMATE

$$$$

     RDKit          2D

 34 36  0  0  1  0  0  0  0  0999 V2000
    1.8792    0.0208    0.0000 N   0  0  0  0  0  0  0  0  0  0  0  0
    2.2417    0.9000    0.0000 C   0  0  0  0  0  0  0  0  0  0  0  0
    2.4667   -0.7667    0.0000 C   0  0  0  0  0  0  0  0  0  0  0  0
    0.9167   -0.1042    0.0000 C   0  0  0  0  0  0  0  0  0  0  0  0
    0.5542   -1.0042    0.0000 C   0  0  0  0  0  0  0  0  0  0  0  0
    1.1375   -1.7792    0.0000 C   0  0  0  0  0  0  0  0  0  0  0  0
    2.0917   -1.6667    0.0000 C   0  0  0  0  0  0  0  0  0  0  0  0
    0.9292    1.4458    0.0000 N   0  0  0  0  0  0  0  0  0  0  0  0
    3.2542   -0.4667    0.0000 C   0  0  0  0  0  0  0  0  0  0  0  0
    1.7667    1.6333    0.0000 C   0  0  0  0  0  0  0  0  0  0  0  0
   -0.4833    2.8958    0.0000 C   0  0  0  0  0  0  0  0  0  0  0  0
    0.7542   -2.6875    0.0000 C   0  0  0  0  0  0  0  0  0  0  0  0
   -0.4083   -1.1167    0.0000 C   0  0  0  0  0  0  0  0  0  0  0  0
   -0.1958   -2.8000    0.0000 C   0  0  0  0  0  0  0  0  0  0  0  0
   -0.7833   -2.0167    0.0000 C   0  0  0  0  0  0  0  0  0  0  0  0
   -0.0708    2.0625    0.0000 C   0  0  0  0  0  0  0  0  0  0  0  0
    3.1542    1.2625    0.0000 O   0  0  0  0  0  0  0  0  0  0  0  0
    3.5667    0.4208    0.0000 O   0  0  0  0  0  0  0  0  0  0  0  0
    0.2125    3.4833    0.0000 O   0  0  0  0  0  0  0  0  0  0  0  0
   -0.9083    1.6458    0.0000 C   0  0  0  0  0  0  0  0  0  0  0  0
    4.1292   -1.1375    0.0000 O   0  0  0  0  0  0  0  0  0  0  0  0
   -1.3625    2.9208    0.0000 O   0  0  0  0  0  0  0  0  0  0  0  0
   -1.7125    2.1500    0.0000 C   0  0  0  0  0  0  0  0  0  0  0  0
   -0.8458   -3.4167    0.0000 O   0  0  0  0  0  0  0  0  0  0  0  0
   -1.6208   -2.0000    0.0000 O   0  0  0  0  0  0  0  0  0  0  0  0
   -2.5958    1.6833    0.0000 C   0  0  0  0  0  0  0  0  0  0  0  0
    1.8792    2.8000    0.0000 C   0  0  0  0  0  0  0  0  0  0  0  0
   -1.7875   -3.2792    0.0000 C   0  0  0  0  0  0  0  0  0  0  0  0
   -2.3208   -1.3625    0.0000 C   0  0  0  0  0  0  0  0  0  0  0  0
   -2.5958    0.8000    0.0000 C   0  0  0  0  0  0  0  0  0  0  0  0
   -3.4208    2.2375    0.0000 C   0  0  0  0  0  0  0  0  0  0  0  0
   -3.3750    0.3208    0.0000 C   0  0  0  0  0  0  0  0  0  0  0  0
   -4.2083    1.6833    0.0000 C   0  0  0  0  0  0  0  0  0  0  0  0
   -4.2083    0.8000    0.0000 C   0  0  0  0  0  0  0  0  0  0  0  0
  2  1  1  0
  3  1  1  0
  4  1  1  0
  5  4  1  0
  6  5  2  0
  7  3  1  0
  8 10  1  0
  3  9  1  6
 10  2  1  0
 16 11  1  0
 12  6  1  0
 13  5  1  0
 14 15  1  0
 15 13  2  0
 16  8  1  1
 17  2  2  0
 18  9  2  0
 19 11  2  0
 20 16  1  0
 21  9  1  0
 22 11  1  0
 23 20  1  0
 24 14  1  0
 25 15  1  0
 26 23  1  0
 10 27  1  1
 28 24  1  0
 29 25  1  0
 30 26  1  0
 31 26  2  0
 32 30  2  0
 33 31  1  0
 34 33  2  0
  7  6  1  0
 14 12  2  0
 32 34  1  0
M  END
> <chembl_id>
CHEMBL1201405

> <chembl_pref_name>
MOEXIPRILAT

$$$$

     RDKit          2D

 38 40  0  0  0  0  0  0  0  0999 V2000
   -1.4083    0.7250    0.0000 C   0  0  0  0  0  0  0  0  0  0  0  0
   -2.5625    0.7250    0.0000 C   0  0  0  0  0  0  0  0  0  0  0  0
   -1.9833    0.3833    0.0000 C   0  0  0  0  0  0  0  0  0  0  0  0
   -1.4083    1.4000    0.0000 C   0  0  0  0  0  0  0  0  0  0  0  0
   -2.5625    1.4000    0.0000 C   0  0  0  0  0  0  0  0  0  0  0  0
   -1.9833    1.7458    0.0000 N   0  0  0  0  0  0  0  0  0  0  0  0
   -0.8458   -1.6792    0.0000 N   0  0  0  0  0  0  0  0  0  0  0  0
   -1.9833   -0.2792    0.0000 C   0  0  0  0  0  0  0  0  0  0  0  0
   -0.8208    0.3833    0.0000 C   0  0  0  0  0  0  0  0  0  0  0  0
   -3.1708    0.4208    0.0000 C   0  0  0  0  0  0  0  0  0  0  0  0
   -1.4250   -1.3167    0.0000 C   0  0  0  0  0  0  0  0  0  0  0  0
   -1.4250   -0.6375    0.0000 C   0  0  0  0  0  0  0  0  0  0  0  0
    2.1042    0.5583    0.0000 N   0  0  0  0  0  0  0  0  0  0  0  0
    3.2542   -0.1375    0.0000 N   0  0  0  0  0  0  0  0  0  0  0  0
   -0.8833   -2.3542    0.0000 O   0  0  0  0  0  0  0  0  0  0  0  0
   -0.2333   -1.3792    0.0000 O   0  0  0  0  0  0  0  0  0  0  0  0
   -0.2125    0.7083    0.0000 O   0  0  0  0  0  0  0  0  0  0  0  0
    0.9417    0.6208    0.0000 C   0  0  0  0  0  0  0  0  0  0  0  0
   -0.8208   -0.2792    0.0000 O   0  0  0  0  0  0  0  0  0  0  0  0
   -3.2083   -0.2542    0.0000 O   0  0  0  0  0  0  0  0  0  0  0  0
    1.5500    0.9333    0.0000 C   0  0  0  0  0  0  0  0  0  0  0  0
    4.3417   -0.2792    0.0000 C   0  0  0  0  0  0  0  0  0  0  0  0
    0.3375    0.3208    0.0000 C   0  0  0  0  0  0  0  0  0  0  0  0
    4.3417    0.2625    0.0000 C   0  0  0  0  0  0  0  0  0  0  0  0
    2.1042   -0.1167    0.0000 C   0  0  0  0  0  0  0  0  0  0  0  0
    2.7042    0.8500    0.0000 C   0  0  0  0  0  0  0  0  0  0  0  0
    2.7042   -0.4667    0.0000 C   0  0  0  0  0  0  0  0  0  0  0  0
    3.2542    0.5083    0.0000 C   0  0  0  0  0  0  0  0  0  0  0  0
   -3.7333    0.7958    0.0000 O   0  0  0  0  0  0  0  0  0  0  0  0
   -3.1708    1.7125    0.0000 C   0  0  0  0  0  0  0  0  0  0  0  0
   -0.8208    1.7458    0.0000 C   0  0  0  0  0  0  0  0  0  0  0  0
    3.7375   -0.5667    0.0000 C   0  0  0  0  0  0  0  0  0  0  0  0
   -2.5750   -0.6375    0.0000 C   0  0  0  0  0  0  0  0  0  0  0  0
   -2.0208   -1.6250    0.0000 C   0  0  0  0  0  0  0  0  0  0  0  0
   -2.5958   -1.3042    0.0000 C   0  0  0  0  0  0  0  0  0  0  0  0
    1.2417    0.0333    0.0000 C   0  0  0  0  0  0  0  0  0  0  0  0
    0.6542    1.2333    0.0000 C   0  0  0  0  0  0  0  0  0  0  0  0
   -4.3458    0.4625    0.0000 C   0  0  0  0  0  0  0  0  0  0  0  0
  2  3  1  0
  3  1  1  0
  4  1  2  0
  5  6  1  0
  6  4  1  0
  7 11  1  0
  8  3  1  0
  9  1  1  0
 10  2  1  0
 11 12  2  0
 12  8  1  0
 13 21  1  0
 14 28  1  0
 15  7  1  0
 16  7  2  0
 17  9  1  0
 18 23  1  0
 19  9  2  0
 20 10  2  0
 21 18  1  0
 22 32  1  0
 23 17  1  0
 24 22  2  0
 25 13  1  0
 26 13  1  0
 27 25  1  0
 28 26  1  0
 29 10  1  0
 30  5  1  0
 31  4  1  0
 32 14  1  0
 33  8  2  0
 34 35  2  0
 35 33  1  0
 36 18  1  0
 37 18  1  0
 38 29  1  0
  2  5  2  0
 11 34  1  0
 27 14  1  0
M  CHG  2   7   1  15  -1
M  END
> <chembl_id>
CHEMBL2106330

> <chembl_pref_name>
IGANIDIPINE

$$$$

     RDKit          2D

 22 24  0  0  0  0  0  0  0  0999 V2000
    0.6667    1.0333    0.0000 N   0  0  0  0  0  0  0  0  0  0  0  0
   -2.3333    0.0000    0.0000 C   0  0  0  0  0  0  0  0  0  0  0  0
   -1.1083    0.0000    0.0000 C   0  0  0  0  0  0  0  0  0  0  0  0
   -0.5208    1.0333    0.0000 C   0  0  0  0  0  0  0  0  0  0  0  0
   -2.3333   -1.2167    0.0000 C   0  0  0  0  0  0  0  0  0  0  0  0
   -2.3333    1.1875    0.0000 C   0  0  0  0  0  0  0  0  0  0  0  0
    1.1375   -0.0917    0.0000 C   0  0  0  0  0  0  0  0  0  0  0  0
    1.2917    2.0625    0.0000 C   0  0  0  0  0  0  0  0  0  0  0  0
   -1.3000    1.8125    0.0000 C   0  0  0  0  0  0  0  0  0  0  0  0
   -3.3583    1.7833    0.0000 C   0  0  0  0  0  0  0  0  0  0  0  0
   -3.3583   -1.8042    0.0000 C   0  0  0  0  0  0  0  0  0  0  0  0
   -1.3000   -1.8042    0.0000 C   0  0  0  0  0  0  0  0  0  0  0  0
    2.2542   -0.4292    0.0000 C   0  0  0  0  0  0  0  0  0  0  0  0
    2.4792    2.2500    0.0000 C   0  0  0  0  0  0  0  0  0  0  0  0
   -3.3583    3.0000    0.0000 C   0  0  0  0  0  0  0  0  0  0  0  0
   -3.3250   -3.0250    0.0000 C   0  0  0  0  0  0  0  0  0  0  0  0
   -1.3000   -2.9917    0.0000 C   0  0  0  0  0  0  0  0  0  0  0  0
   -1.3000    3.0333    0.0000 C   0  0  0  0  0  0  0  0  0  0  0  0
   -2.3333    3.5958    0.0000 C   0  0  0  0  0  0  0  0  0  0  0  0
   -2.3333   -3.5875    0.0000 C   0  0  0  0  0  0  0  0  0  0  0  0
    3.2292    0.2208    0.0000 C   0  0  0  0  0  0  0  0  0  0  0  0
    3.3542    1.3750    0.0000 C   0  0  0  0  0  0  0  0  0  0  0  0
  2  3  1  0
  3  4  1  0
  4  1  1  0
  5  2  1  0
  6  2  1  0
  7  1  1  0
  8  1  1  0
  9  6  2  0
 10  6  1  0
 11  5  2  0
 12  5  1  0
 13  7  1  0
 14  8  1  0
 15 10  2  0
 16 11  1  0
 17 12  2  0
 18  9  1  0
 19 15  1  0
 20 17  1  0
 21 13  1  0
 22 14  1  0
 21 22  1  0
 18 19  2  0
 16 20  2  0
M  END
> <chembl_id>
CHEMBL2105301

> <chembl_pref_name>
PROZAPINE

$$$$

     RDKit          2D

 22 23  0  0  0  0  0  0  0  0999 V2000
    1.3184   -3.2345    0.0000 Cl  0  0  0  0  0  0  0  0  0  0  0  0
   -3.2816   -4.1668    0.0000 C   0  0  0  0  0  0  0  0  0  0  0  0
   -2.5281   -3.8098    0.0000 C   0  0  0  0  0  0  0  0  0  0  0  0
   -4.0271   -3.8013    0.0000 C   0  0  0  0  0  0  0  0  0  0  0  0
   -2.8491   -2.3445    0.0000 O   0  0  0  0  0  0  0  0  0  0  0  0
   -2.3385   -3.0005    0.0000 C   0  0  0  0  0  0  0  0  0  0  0  0
   -3.2854   -4.9866    0.0000 C   0  0  0  0  0  0  0  0  0  0  0  0
   -4.2055   -2.9872    0.0000 C   0  0  0  0  0  0  0  0  0  0  0  0
   -3.6802   -2.3475    0.0000 C   0  0  0  0  0  0  0  0  0  0  0  0
   -1.8707   -6.6346    0.0000 N   0  0  0  0  0  0  0  0  0  0  0  0
   -2.5757   -5.4027    0.0000 C   0  0  0  0  0  0  0  0  0  0  0  0
   -1.9237   -4.3684    0.0000 C   0  0  0  0  0  0  0  0  0  0  0  0
   -4.6348   -4.3567    0.0000 C   0  0  0  0  0  0  0  0  0  0  0  0
   -2.5786   -6.2266    0.0000 C   0  0  0  0  0  0  0  0  0  0  0  0
   -1.5551   -2.7606    0.0000 C   0  0  0  0  0  0  0  0  0  0  0  0
   -4.9871   -2.7490    0.0000 C   0  0  0  0  0  0  0  0  0  0  0  0
   -1.8727   -7.4625    0.0000 C   0  0  0  0  0  0  0  0  0  0  0  0
   -1.1564   -6.2349    0.0000 C   0  0  0  0  0  0  0  0  0  0  0  0
   -1.1271   -4.1298    0.0000 C   0  0  0  0  0  0  0  0  0  0  0  0
   -5.4191   -4.1063    0.0000 C   0  0  0  0  0  0  0  0  0  0  0  0
   -0.9466   -3.3182    0.0000 C   0  0  0  0  0  0  0  0  0  0  0  0
   -5.5957   -3.3004    0.0000 C   0  0  0  0  0  0  0  0  0  0  0  0
  3  2  1  0
  4  2  1  0
  5  6  1  0
  6  3  2  0
  7  2  2  0
  8  4  1  0
  9  8  1  0
 10 14  1  0
 11  7  1  0
 12  3  1  0
 13  4  2  0
 14 11  1  0
 15  6  1  0
 16  8  2  0
 17 10  1  0
 18 10  1  0
 19 12  2  0
 20 13  1  0
 21 19  1  0
 22 20  2  0
  5  9  1  0
 22 16  1  0
 15 21  2  0
M  END
> <chembl_id>
CHEMBL1256774

> <chembl_pref_name>
CIDOXEPIN HYDROCHLORIDE

$$$$

     RDKit          2D

 30 32  0  0  0  0  0  0  0  0999 V2000
    7.8917   -6.4667    0.0000 C   0  0  0  0  0  0  0  0  0  0  0  0
    9.7250   -6.1167    0.0000 C   0  0  0  0  0  0  0  0  0  0  0  0
    7.8917   -7.1792    0.0000 O   0  0  0  0  0  0  0  0  0  0  0  0
    9.7250   -5.4042    0.0000 O   0  0  0  0  0  0  0  0  0  0  0  0
    8.5042   -6.1167    0.0000 C   0  0  0  0  0  0  0  0  0  0  0  0
    9.1125   -6.4667    0.0000 C   0  0  0  0  0  0  0  0  0  0  0  0
   10.3292   -6.4667    0.0000 O   0  0  0  0  0  0  0  0  0  0  0  0
    7.2750   -6.1167    0.0000 O   0  0  0  0  0  0  0  0  0  0  0  0
    3.6167   -5.7417    0.0000 C   0  0  0  0  0  0  0  0  0  0  0  0
    4.8167   -6.4375    0.0000 N   0  0  0  0  0  0  0  0  0  0  0  0
    3.6167   -4.8625    0.0000 C   0  0  0  0  0  0  0  0  0  0  0  0
    3.6167   -6.4375    0.0000 C   0  0  0  0  0  0  0  0  0  0  0  0
    4.2292   -5.3875    0.0000 C   0  0  0  0  0  0  0  0  0  0  0  0
    4.2292   -6.7667    0.0000 C   0  0  0  0  0  0  0  0  0  0  0  0
    6.0375   -6.4750    0.0000 C   0  0  0  0  0  0  0  0  0  0  0  0
    6.0292   -5.8042    0.0000 C   0  0  0  0  0  0  0  0  0  0  0  0
    6.7250   -6.4792    0.0000 C   0  0  0  0  0  0  0  0  0  0  0  0
    3.0167   -4.5042    0.0000 C   0  0  0  0  0  0  0  0  0  0  0  0
    5.4250   -6.8042    0.0000 C   0  0  0  0  0  0  0  0  0  0  0  0
    4.8167   -5.7417    0.0000 C   0  0  0  0  0  0  0  0  0  0  0  0
    3.0167   -3.8125    0.0000 C   0  0  0  0  0  0  0  0  0  0  0  0
    3.0042   -5.3875    0.0000 C   0  0  0  0  0  0  0  0  0  0  0  0
    2.4417   -3.4542    0.0000 O   0  0  0  0  0  0  0  0  0  0  0  0
    4.2042   -4.5042    0.0000 C   0  0  0  0  0  0  0  0  0  0  0  0
    3.0042   -6.7667    0.0000 C   0  0  0  0  0  0  0  0  0  0  0  0
    4.2042   -3.8125    0.0000 C   0  0  0  0  0  0  0  0  0  0  0  0
    3.6167   -3.4667    0.0000 C   0  0  0  0  0  0  0  0  0  0  0  0
    2.4125   -5.7417    0.0000 C   0  0  0  0  0  0  0  0  0  0  0  0
    2.4125   -6.4375    0.0000 C   0  0  0  0  0  0  0  0  0  0  0  0
    3.6167   -7.1125    0.0000 H   0  0  0  0  0  0  0  0  0  0  0  0
  2  6  1  0
  3  1  2  0
  4  2  2  0
  5  1  1  0
  6  5  1  0
  7  2  1  0
  8  1  1  0
 10 20  1  0
  9 11  1  6
 12  9  1  0
 13  9  1  0
 14 12  1  0
 15 19  1  0
 16 15  1  0
 17 15  1  0
 18 11  2  0
 19 10  1  0
 20 13  1  0
 21 18  1  0
 22  9  1  0
 23 21  1  0
 24 11  1  0
 25 12  1  0
 26 24  2  0
 27 26  1  0
 28 22  1  0
 29 25  1  0
 12 30  1  1
 14 10  1  0
 28 29  1  0
 27 21  2  0
 16 17  1  0
M  END
> <chembl_id>
CHEMBL2107272

> <chembl_pref_name>
CIPREFADOL SUCCINATE

$$$$

     RDKit          2D

 26 29  0  0  0  0  0  0  0  0999 V2000
   -0.0255   -1.1559    0.0000 C   0  0  0  0  0  0  0  0  0  0  0  0
   -1.8616    0.4238    0.0000 C   0  0  0  0  0  0  0  0  0  0  0  0
   -0.8813   -1.7914    0.0000 C   0  0  0  0  0  0  0  0  0  0  0  0
   -1.9195   -1.5173    0.0000 C   0  0  0  0  0  0  0  0  0  0  0  0
    0.0250   -0.0821    0.0000 C   0  0  0  0  0  0  0  0  0  0  0  0
   -0.7672    0.6351    0.0000 C   0  0  0  0  0  0  0  0  0  0  0  0
   -2.3346   -0.4967    0.0000 C   0  0  0  0  0  0  0  0  0  0  0  0
    0.9957   -1.6169    0.0000 N   0  0  0  0  0  0  0  0  0  0  0  0
   -1.6833    3.4208    0.0000 N   0  0  0  0  0  0  0  0  0  0  0  0
   -2.1083    2.3625    0.0000 C   0  0  0  0  0  0  0  0  0  0  0  0
    3.0178   -2.5254    0.0000 N   0  0  0  0  0  0  0  0  0  0  0  0
   -2.5193    1.3390    0.0000 C   0  0  0  0  0  0  0  0  0  0  0  0
   -3.4560   -0.3939    0.0000 C   0  0  0  0  0  0  0  0  0  0  0  0
   -2.5698   -2.3961    0.0000 C   0  0  0  0  0  0  0  0  0  0  0  0
    1.1033   -2.6982    0.0000 C   0  0  0  0  0  0  0  0  0  0  0  0
    1.9005   -1.0045    0.0000 C   0  0  0  0  0  0  0  0  0  0  0  0
    2.1110   -3.1793    0.0000 C   0  0  0  0  0  0  0  0  0  0  0  0
    2.9269   -1.4407    0.0000 C   0  0  0  0  0  0  0  0  0  0  0  0
   -3.6914   -2.2975    0.0000 C   0  0  0  0  0  0  0  0  0  0  0  0
   -4.1195   -1.2888    0.0000 C   0  0  0  0  0  0  0  0  0  0  0  0
   -4.3604   -3.2171    0.0000 Cl  0  0  0  0  0  0  0  0  0  0  0  0
    1.0844    0.2685    0.0000 C   0  0  0  0  0  0  0  0  0  0  0  0
   -0.5653    1.7351    0.0000 C   0  0  0  0  0  0  0  0  0  0  0  0
    4.0575   -2.9455    0.0000 C   0  0  0  0  0  0  0  0  0  0  0  0
    1.3114    1.3716    0.0000 C   0  0  0  0  0  0  0  0  0  0  0  0
    0.4649    2.0871    0.0000 C   0  0  0  0  0  0  0  0  0  0  0  0
  2  6  1  0
  3  1  2  0
  4  3  1  0
  5  1  1  0
  6  5  2  0
  7  4  2  0
  8  1  1  0
  9 10  3  0
 10 12  1  0
 11 18  1  0
 12  2  2  0
 13  7  1  0
 14  4  1  0
 15  8  1  0
 16  8  1  0
 17 15  1  0
 18 16  1  0
 19 14  2  0
 20 19  1  0
 21 19  1  0
 22  5  1  0
 23  6  1  0
 24 11  1  0
 25 22  2  0
 26 25  1  0
 17 11  1  0
  2  7  1  0
 23 26  2  0
 13 20  2  0
M  END
> <chembl_id>
CHEMBL2104850

> <chembl_pref_name>
RILAPINE

$$$$

     RDKit          2D

 24 26  0  0  1  0  0  0  0  0999 V2000
   -4.9673    3.6805    0.0000 C   0  0  0  0  0  0  0  0  0  0  0  0
   -5.2878    2.9719    0.0000 C   0  0  0  0  0  0  0  0  0  0  0  0
   -5.9081    2.5950    0.0000 C   0  0  0  0  0  0  0  0  0  0  0  0
   -5.3882    3.3073    0.0000 C   0  0  0  0  0  0  0  0  0  0  0  0
   -4.4165    3.3073    0.0000 C   0  0  0  0  0  0  0  0  0  0  0  0
   -3.9003    2.8786    0.0000 C   0  0  0  0  0  0  0  0  0  0  0  0
   -4.0385    3.6960    0.0000 C   0  0  0  0  0  0  0  0  0  0  0  0
   -3.4885    2.1638    0.0000 O   0  0  0  0  0  0  0  0  0  0  0  0
   -5.5279    4.1204    0.0000 N   0  0  0  0  0  0  0  0  0  0  0  0
   -5.9505    4.8290    0.0000 C   0  0  0  0  0  0  0  0  0  0  0  0
   -5.1572    4.4834    0.0000 H   0  0  0  0  0  0  0  0  0  0  0  0
   -5.9910    3.8706    0.0000 H   0  0  0  0  0  0  0  0  0  0  0  0
   -2.6635    2.1629    0.0000 C   0  0  0  0  0  0  0  0  0  0  0  0
   -2.2517    1.4481    0.0000 C   0  0  0  0  0  0  0  0  0  0  0  0
   -2.2503    2.8770    0.0000 O   0  0  0  0  0  0  0  0  0  0  0  0
   -2.9666    1.0363    0.0000 C   0  0  0  0  0  0  0  0  0  0  0  0
   -1.8399    0.7332    0.0000 C   0  0  0  0  0  0  0  0  0  0  0  0
   -1.5368    1.8599    0.0000 C   0  0  0  0  0  0  0  0  0  0  0  0
   -0.8228    1.4467    0.0000 O   0  0  0  0  0  0  0  0  0  0  0  0
   -1.0149    0.7324    0.0000 C   0  0  0  0  0  0  0  0  0  0  0  0
   -0.6031    0.0175    0.0000 C   0  0  0  0  0  0  0  0  0  0  0  0
   -1.0163   -0.6966    0.0000 C   0  0  0  0  0  0  0  0  0  0  0  0
   -1.8413   -0.6958    0.0000 C   0  0  0  0  0  0  0  0  0  0  0  0
   -2.2531    0.0191    0.0000 C   0  0  0  0  0  0  0  0  0  0  0  0
  1  2  1  0
  2  3  1  0
  3  4  1  0
  4  5  1  0
  5  6  1  0
  6  7  1  0
  7  1  1  0
  6  8  1  6
  4  9  1  0
  1  9  1  0
  9 10  1  0
  1 11  1  6
  4 12  1  1
  8 13  1  0
 13 14  1  0
 13 15  2  0
 14 16  1  0
 14 17  1  0
 14 18  1  1
 18 19  1  0
 17 20  1  0
 17 24  2  0
 20 21  2  0
 21 22  1  0
 22 23  2  0
 23 24  1  0
M  END
> <chembl_id>
CHEMBL3989474

> <chembl_pref_name>
ATROMEPINE

$$$$

     RDKit          2D

 24 27  0  0  0  0  0  0  0  0999 V2000
    0.0792   -0.6167    0.0000 C   0  0  0  0  0  0  0  0  0  0  0  0
   -0.6458   -1.5542    0.0000 C   0  0  0  0  0  0  0  0  0  0  0  0
    1.2750   -0.6167    0.0000 C   0  0  0  0  0  0  0  0  0  0  0  0
   -0.4625    0.4375    0.0000 N   0  0  0  0  0  0  0  0  0  0  0  0
    0.7292   -3.2500    0.0000 O   0  0  0  0  0  0  0  0  0  0  0  0
   -0.3583   -2.7292    0.0000 C   0  0  0  0  0  0  0  0  0  0  0  0
    2.0375   -1.5417    0.0000 C   0  0  0  0  0  0  0  0  0  0  0  0
    1.7917   -2.7167    0.0000 C   0  0  0  0  0  0  0  0  0  0  0  0
   -1.5625    2.5458    0.0000 N   0  0  0  0  0  0  0  0  0  0  0  0
   -1.8083   -1.2375    0.0000 C   0  0  0  0  0  0  0  0  0  0  0  0
    0.2000    1.4333    0.0000 C   0  0  0  0  0  0  0  0  0  0  0  0
   -1.6458    0.4625    0.0000 C   0  0  0  0  0  0  0  0  0  0  0  0
   -1.2458   -3.5875    0.0000 C   0  0  0  0  0  0  0  0  0  0  0  0
   -0.3250    2.4958    0.0000 C   0  0  0  0  0  0  0  0  0  0  0  0
   -2.2208    1.5500    0.0000 C   0  0  0  0  0  0  0  0  0  0  0  0
   -2.6833   -2.0625    0.0000 C   0  0  0  0  0  0  0  0  0  0  0  0
   -2.3958   -3.2375    0.0000 C   0  0  0  0  0  0  0  0  0  0  0  0
   -3.8375   -1.7250    0.0000 O   0  0  0  0  0  0  0  0  0  0  0  0
   -2.1500    3.5958    0.0000 C   0  0  0  0  0  0  0  0  0  0  0  0
    3.2042   -1.1667    0.0000 C   0  0  0  0  0  0  0  0  0  0  0  0
    2.7167   -3.5167    0.0000 C   0  0  0  0  0  0  0  0  0  0  0  0
   -4.1083   -0.5667    0.0000 C   0  0  0  0  0  0  0  0  0  0  0  0
    4.1042   -1.9667    0.0000 C   0  0  0  0  0  0  0  0  0  0  0  0
    3.8542   -3.1375    0.0000 C   0  0  0  0  0  0  0  0  0  0  0  0
  2  1  1  0
  3  1  2  0
  4  1  1  0
  5  6  1  0
  6  2  2  0
  7  3  1  0
  8  7  2  0
  9 15  1  0
 10  2  1  0
 11  4  1  0
 12  4  1  0
 13  6  1  0
 14 11  1  0
 15 12  1  0
 16 10  2  0
 17 16  1  0
 18 16  1  0
 19  9  1  0
 20  7  1  0
 21  8  1  0
 22 18  1  0
 23 20  2  0
 24 23  1  0
 14  9  1  0
  5  8  1  0
 13 17  2  0
 21 24  2  0
M  END
> <chembl_id>
CHEMBL2106834

> <chembl_pref_name>
METOXEPIN

$$$$

     RDKit          2D

 26 27  0  0  1  0  0  0  0  0999 V2000
    0.9792   -0.1792    0.0000 N   0  0  0  0  0  0  0  0  0  0  0  0
    1.7167   -0.5167    0.0000 C   0  0  0  0  0  0  0  0  0  0  0  0
    0.8250    0.6333    0.0000 C   0  0  0  0  0  0  0  0  0  0  0  0
    0.4167   -0.8000    0.0000 C   0  0  0  0  0  0  0  0  0  0  0  0
    1.6417   -1.3375    0.0000 C   0  0  0  0  0  0  0  0  0  0  0  0
    2.4292   -0.0917    0.0000 C   0  0  0  0  0  0  0  0  0  0  0  0
   -0.5750    0.3833    0.0000 N   0  0  0  0  0  0  0  0  0  0  0  0
    0.8375   -1.5042    0.0000 C   0  0  0  0  0  0  0  0  0  0  0  0
    0.0542    0.9083    0.0000 C   0  0  0  0  0  0  0  0  0  0  0  0
   -1.5000    1.4625    0.0000 C   0  0  0  0  0  0  0  0  0  0  0  0
   -1.3500    0.6500    0.0000 C   0  0  0  0  0  0  0  0  0  0  0  0
    1.4500    1.1708    0.0000 O   0  0  0  0  0  0  0  0  0  0  0  0
    3.1542   -0.4917    0.0000 O   0  0  0  0  0  0  0  0  0  0  0  0
   -0.8750    1.9958    0.0000 O   0  0  0  0  0  0  0  0  0  0  0  0
    2.4167    0.7333    0.0000 O   0  0  0  0  0  0  0  0  0  0  0  0
   -2.2750    1.7333    0.0000 O   0  0  0  0  0  0  0  0  0  0  0  0
   -0.4083   -0.8000    0.0000 C   0  0  0  0  0  0  0  0  0  0  0  0
    0.4167   -2.2250    0.0000 C   0  0  0  0  0  0  0  0  0  0  0  0
   -0.1000    1.7208    0.0000 C   0  0  0  0  0  0  0  0  0  0  0  0
   -1.9750    0.1208    0.0000 C   0  0  0  0  0  0  0  0  0  0  0  0
   -2.7500    0.3958    0.0000 C   0  0  0  0  0  0  0  0  0  0  0  0
   -0.8208   -1.5125    0.0000 C   0  0  0  0  0  0  0  0  0  0  0  0
   -0.4083   -2.2250    0.0000 C   0  0  0  0  0  0  0  0  0  0  0  0
   -3.3750   -0.1417    0.0000 C   0  0  0  0  0  0  0  0  0  0  0  0
    0.0042   -0.0792    0.0000 H   0  0  0  0  0  0  0  0  0  0  0  0
    1.0042   -2.3167    0.0000 H   0  0  0  0  0  0  0  0  0  0  0  0
  2  1  1  0
  3  1  1  0
  4  1  1  0
  5  2  1  0
  2  6  1  6
  7  9  1  0
  8  4  1  0
  9  3  1  0
 11 10  1  1
 11  7  1  0
 12  3  2  0
 13  6  2  0
 14 10  2  0
 15  6  1  0
 16 10  1  0
 17  4  1  0
 18  8  1  0
  9 19  1  1
 20 11  1  0
 21 20  1  0
 22 17  1  0
 23 22  1  0
 24 21  1  0
  4 25  1  1
  8 26  1  1
  8  5  1  0
 18 23  1  0
M  END
> <chembl_id>
CHEMBL1201368

> <chembl_pref_name>
PERINDOPRILAT

$$$$

     RDKit          2D

 29 31  0  0  0  0  0  0  0  0999 V2000
    9.6625    9.4569    0.0000 O   0  0  0  0  0  0  0  0  0  0  0  0
   11.0914    6.9819    0.0000 O   0  0  0  0  0  0  0  0  0  0  0  0
    8.2335    6.1569    0.0000 O   0  0  0  0  0  0  0  0  0  0  0  0
    7.5190    7.3944    0.0000 O   0  0  0  0  0  0  0  0  0  0  0  0
    6.8046   11.9319    0.0000 O   0  0  0  0  0  0  0  0  0  0  0  0
   11.8059    3.2694    0.0000 O   0  0  0  0  0  0  0  0  0  0  0  0
    6.0901   10.6944    0.0000 O   0  0  0  0  0  0  0  0  0  0  0  0
   10.3769    3.2694    0.0000 O   0  0  0  0  0  0  0  0  0  0  0  0
    6.8046   11.1069    0.0000 N   0  0  0  0  0  0  0  0  0  0  0  0
   11.0914    3.6819    0.0000 N   0  0  0  0  0  0  0  0  0  0  0  0
    9.6625    8.6319    0.0000 C   0  0  0  0  0  0  0  0  0  0  0  0
   10.3769    7.3944    0.0000 C   0  0  0  0  0  0  0  0  0  0  0  0
    8.9480    7.3944    0.0000 C   0  0  0  0  0  0  0  0  0  0  0  0
   10.3769    8.2194    0.0000 C   0  0  0  0  0  0  0  0  0  0  0  0
    8.9480    8.2194    0.0000 C   0  0  0  0  0  0  0  0  0  0  0  0
    9.6625    6.9819    0.0000 C   0  0  0  0  0  0  0  0  0  0  0  0
    8.9480    9.8694    0.0000 C   0  0  0  0  0  0  0  0  0  0  0  0
   11.0914    6.1569    0.0000 C   0  0  0  0  0  0  0  0  0  0  0  0
    8.2335    6.9819    0.0000 C   0  0  0  0  0  0  0  0  0  0  0  0
    7.5190   10.6944    0.0000 C   0  0  0  0  0  0  0  0  0  0  0  0
   11.0914    4.5069    0.0000 C   0  0  0  0  0  0  0  0  0  0  0  0
    8.2335    9.4569    0.0000 C   0  0  0  0  0  0  0  0  0  0  0  0
   11.8059    5.7444    0.0000 C   0  0  0  0  0  0  0  0  0  0  0  0
    8.9480   10.6944    0.0000 C   0  0  0  0  0  0  0  0  0  0  0  0
   10.3769    5.7444    0.0000 C   0  0  0  0  0  0  0  0  0  0  0  0
    7.5190    9.8694    0.0000 C   0  0  0  0  0  0  0  0  0  0  0  0
   11.8059    4.9194    0.0000 C   0  0  0  0  0  0  0  0  0  0  0  0
    8.2335   11.1069    0.0000 C   0  0  0  0  0  0  0  0  0  0  0  0
   10.3769    4.9194    0.0000 C   0  0  0  0  0  0  0  0  0  0  0  0
  1 11  1  0
  1 17  1  0
  2 12  1  0
  2 18  1  0
  3 19  2  0
  4 19  1  0
  5  9  1  0
  6 10  1  0
  7  9  2  0
  8 10  2  0
  9 20  1  0
 10 21  1  0
 11 14  2  0
 11 15  1  0
 12 14  1  0
 12 16  2  0
 13 15  2  0
 13 16  1  0
 13 19  1  0
 17 22  2  0
 17 24  1  0
 18 23  2  0
 18 25  1  0
 20 26  2  0
 20 28  1  0
 21 27  2  0
 21 29  1  0
 22 26  1  0
 23 27  1  0
 24 28  2  0
 25 29  2  0
M  CHG  4   5  -1   6  -1   9   1  10   1
M  END
> <chembl_id>
CHEMBL1553155

> <chembl_pref_name>
None

$$$$

     RDKit          2D

 32 36  0  0  0  0  0  0  0  0999 V2000
   -2.8996   -6.6950    0.0000 O   0  0  0  0  0  0  0  0  0  0  0  0
   -2.0747   -6.6950    0.0000 C   0  0  0  0  0  0  0  0  0  0  0  0
   -1.8173   -5.9103    0.0000 C   0  0  0  0  0  0  0  0  0  0  0  0
   -2.4872   -5.4242    0.0000 O   0  0  0  0  0  0  0  0  0  0  0  0
   -3.1529   -5.9112    0.0000 C   0  0  0  0  0  0  0  0  0  0  0  0
   -3.8680   -5.5058    0.0000 C   0  0  0  0  0  0  0  0  0  0  0  0
   -3.8713   -4.6798    0.0000 C   0  0  0  0  0  0  0  0  0  0  0  0
   -4.5872   -4.2715    0.0000 C   0  0  0  0  0  0  0  0  0  0  0  0
   -5.3002   -4.6881    0.0000 C   0  0  0  0  0  0  0  0  0  0  0  0
   -5.2928   -5.5172    0.0000 C   0  0  0  0  0  0  0  0  0  0  0  0
   -4.5764   -5.9218    0.0000 C   0  0  0  0  0  0  0  0  0  0  0  0
   -3.7412   -6.4908    0.0000 C   0  0  0  0  0  0  0  0  0  0  0  0
   -4.5376   -6.2681    0.0000 C   0  0  0  0  0  0  0  0  0  0  0  0
   -5.1255   -6.8469    0.0000 C   0  0  0  0  0  0  0  0  0  0  0  0
   -4.9179   -7.6471    0.0000 C   0  0  0  0  0  0  0  0  0  0  0  0
   -4.1170   -7.8654    0.0000 C   0  0  0  0  0  0  0  0  0  0  0  0
   -3.5325   -7.2851    0.0000 C   0  0  0  0  0  0  0  0  0  0  0  0
   -1.1021   -5.4993    0.0000 C   0  0  0  0  0  0  0  0  0  0  0  0
   -0.3885   -5.9133    0.0000 N   0  0  0  0  0  0  0  0  0  0  0  0
   -0.3955   -6.7374    0.0000 C   0  0  0  0  0  0  0  0  0  0  0  0
    0.3139   -7.1512    0.0000 C   0  0  0  0  0  0  0  0  0  0  0  0
    1.0315   -6.7438    0.0000 N   0  0  0  0  0  0  0  0  0  0  0  0
    1.0352   -5.9179    0.0000 C   0  0  0  0  0  0  0  0  0  0  0  0
    0.3213   -5.4995    0.0000 C   0  0  0  0  0  0  0  0  0  0  0  0
    1.7401   -7.1573    0.0000 C   0  0  0  0  0  0  0  0  0  0  0  0
    1.7339   -7.9833    0.0000 C   0  0  0  0  0  0  0  0  0  0  0  0
    2.4450   -8.3998    0.0000 C   0  0  0  0  0  0  0  0  0  0  0  0
    3.1627   -7.9915    0.0000 C   0  0  0  0  0  0  0  0  0  0  0  0
    3.1649   -7.1623    0.0000 C   0  0  0  0  0  0  0  0  0  0  0  0
    2.4532   -6.7496    0.0000 C   0  0  0  0  0  0  0  0  0  0  0  0
    2.4558   -5.9247    0.0000 O   0  0  0  0  0  0  0  0  0  0  0  0
    3.1714   -5.5144    0.0000 C   0  0  0  0  0  0  0  0  0  0  0  0
  2  3  1  0
  3 18  1  0
  8  9  2  0
 18 19  1  0
 19 20  1  0
  3  4  1  0
  9 10  1  0
  4  5  1  0
 10 11  2  0
 11  6  1  0
 19 24  1  0
 20 21  1  0
 21 22  1  0
 22 23  1  0
 23 24  1  0
  5  6  1  0
  5  1  1  0
 25 26  2  0
  5 12  1  0
 26 27  1  0
  1  2  1  0
 27 28  2  0
 12 13  2  0
 28 29  1  0
 29 30  2  0
 30 25  1  0
 22 25  1  0
 13 14  1  0
 30 31  1  0
  6  7  2  0
 31 32  1  0
 14 15  2  0
 15 16  1  0
  7  8  1  0
 16 17  2  0
 17 12  1  0
M  END
> <chembl_id>
CHEMBL1963046

> <chembl_pref_name>
None

$$$$

     RDKit          2D

 30 31  0  0  0  0  0  0  0  0999 V2000
    4.8616   -5.5688    0.0000 Cl  0  0  0  0  0  0  0  0  0  0  0  0
    0.7729   -5.5214    0.0000 C   0  0  0  0  0  0  0  0  0  0  0  0
    1.4685   -5.8981    0.0000 C   0  0  0  0  0  0  0  0  0  0  0  0
    0.0145   -5.8837    0.0000 C   0  0  0  0  0  0  0  0  0  0  0  0
    1.1593   -7.3377    0.0000 O   0  0  0  0  0  0  0  0  0  0  0  0
    1.6521   -6.7001    0.0000 C   0  0  0  0  0  0  0  0  0  0  0  0
    2.1593   -3.0336    0.0000 N   0  0  0  0  0  0  0  0  0  0  0  0
    3.5843   -2.2172    0.0000 N   0  0  0  0  0  0  0  0  0  0  0  0
    0.7729   -4.6712    0.0000 C   0  0  0  0  0  0  0  0  0  0  0  0
    2.1013   -5.3378    0.0000 C   0  0  0  0  0  0  0  0  0  0  0  0
   -0.1980   -6.7001    0.0000 C   0  0  0  0  0  0  0  0  0  0  0  0
    0.3527   -7.3232    0.0000 C   0  0  0  0  0  0  0  0  0  0  0  0
    2.4395   -6.9319    0.0000 C   0  0  0  0  0  0  0  0  0  0  0  0
    2.8742   -5.5697    0.0000 C   0  0  0  0  0  0  0  0  0  0  0  0
    2.1738   -2.2076    0.0000 C   0  0  0  0  0  0  0  0  0  0  0  0
    3.5554   -3.0143    0.0000 C   0  0  0  0  0  0  0  0  0  0  0  0
    2.8694   -1.8018    0.0000 C   0  0  0  0  0  0  0  0  0  0  0  0
    2.8308   -3.4201    0.0000 C   0  0  0  0  0  0  0  0  0  0  0  0
    3.0771   -6.3764    0.0000 C   0  0  0  0  0  0  0  0  0  0  0  0
    3.4974   -5.0045    0.0000 Cl  0  0  0  0  0  0  0  0  0  0  0  0
    1.4396   -4.2751    0.0000 C   0  0  0  0  0  0  0  0  0  0  0  0
    1.4540   -3.4539    0.0000 C   0  0  0  0  0  0  0  0  0  0  0  0
   -0.5023   -5.3040    0.0000 C   0  0  0  0  0  0  0  0  0  0  0  0
    4.3041   -1.8163    0.0000 C   0  0  0  0  0  0  0  0  0  0  0  0
    5.0480   -3.0481    0.0000 O   0  0  0  0  0  0  0  0  0  0  0  0
   -1.0144   -6.9464    0.0000 C   0  0  0  0  0  0  0  0  0  0  0  0
    5.0721   -2.2946    0.0000 C   0  0  0  0  0  0  0  0  0  0  0  0
   -1.3574   -5.5552    0.0000 C   0  0  0  0  0  0  0  0  0  0  0  0
   -1.5602   -6.3378    0.0000 C   0  0  0  0  0  0  0  0  0  0  0  0
    5.3040   -7.0624    0.0000 Cl  0  0  0  0  0  0  0  0  0  0  0  0
  3  2  1  0
  4  2  1  0
  5  6  1  0
  6  3  2  0
  7 22  1  0
  8 16  1  0
  9  2  2  0
 10  3  1  0
 11  4  2  0
 12 11  1  0
 13  6  1  0
 14 10  2  0
 15  7  1  0
 16 18  1  0
 17 15  1  0
 18  7  1  0
 19 14  1  0
 20 14  1  0
 21  9  1  0
 22 21  1  0
 23  4  1  0
 24  8  1  0
 25 27  1  0
 26 11  1  0
 27 24  1  0
 28 23  2  0
 29 28  1  0
  5 12  1  0
 26 29  2  0
 13 19  2  0
 17  8  1  0
M  END
> <chembl_id>
CHEMBL3989831

> <chembl_pref_name>
PINOXEPIN HYDROCHLORIDE

$$$$

     RDKit          2D

 18 19  0  0  0  0  0  0  0  0999 V2000
   -0.2605  -11.2702    0.0000 C   0  0  0  0  0  0  0  0  0  0  0  0
    0.4527  -11.6853    0.0000 C   0  0  0  0  0  0  0  0  0  0  0  0
    1.1681  -11.2713    0.0000 C   0  0  0  0  0  0  0  0  0  0  0  0
    1.8773  -11.6864    0.0000 C   0  0  0  0  0  0  0  0  0  0  0  0
    1.8752  -12.5114    0.0000 C   0  0  0  0  0  0  0  0  0  0  0  0
    1.1662  -12.9176    0.0000 C   0  0  0  0  0  0  0  0  0  0  0  0
    0.4528  -12.5067    0.0000 C   0  0  0  0  0  0  0  0  0  0  0  0
   -0.2585  -10.4452    0.0000 O   0  0  0  0  0  0  0  0  0  0  0  0
   -0.9737  -11.6806    0.0000 N   0  0  0  0  0  0  0  0  0  0  0  0
   -1.7723  -10.4480    0.0000 S   0  0  0  0  0  0  0  0  0  0  0  0
   -1.6871  -11.2655    0.0000 C   0  0  0  0  0  0  0  0  0  0  0  0
   -2.4414  -11.6038    0.0000 N   0  0  0  0  0  0  0  0  0  0  0  0
   -2.9920  -10.9878    0.0000 C   0  0  0  0  0  0  0  0  0  0  0  0
   -2.5769  -10.2745    0.0000 C   0  0  0  0  0  0  0  0  0  0  0  0
   -2.9075   -9.5222    0.0000 N   0  0  0  0  0  0  0  0  0  0  0  0
   -2.4270   -8.8612    0.0000 O   0  0  0  0  0  0  0  0  0  0  0  0
   -3.7283   -9.4366    0.0000 O   0  0  0  0  0  0  0  0  0  0  0  0
    1.1701  -10.4463    0.0000 O   0  0  0  0  0  0  0  0  0  0  0  0
  1  2  1  0
  2  3  1  0
  3  4  2  0
  4  5  1  0
  5  6  2  0
  6  7  1  0
  2  7  2  0
  1  8  2  0
  1  9  1  0
 10 11  1  0
 11 12  2  0
 12 13  1  0
 13 14  2  0
 10 14  1  0
 15 16  2  0
 15 17  1  0
 14 15  1  0
  9 11  1  0
  3 18  1  0
M  CHG  2  15   1  17  -1
M  END
> <chembl_id>
CHEMBL1545

> <chembl_pref_name>
TIZOXANIDE

$$$$

     RDKit          2D

 27 29  0  0  0  0  0  0  0  0999 V2000
    3.5625   -2.1792    0.0000 C   0  0  0  0  0  0  0  0  0  0  0  0
    3.5542   -3.5917    0.0000 C   0  0  0  0  0  0  0  0  0  0  0  0
    2.9500   -2.5292    0.0000 C   0  0  0  0  0  0  0  0  0  0  0  0
    2.9417   -3.2417    0.0000 C   0  0  0  0  0  0  0  0  0  0  0  0
    3.5667   -1.4667    0.0000 O   0  0  0  0  0  0  0  0  0  0  0  0
    3.5500   -4.3042    0.0000 O   0  0  0  0  0  0  0  0  0  0  0  0
    4.1750   -2.5375    0.0000 O   0  0  0  0  0  0  0  0  0  0  0  0
    4.1667   -3.2417    0.0000 O   0  0  0  0  0  0  0  0  0  0  0  0
   -0.3083   -2.4667    0.0000 N   0  0  0  0  0  0  0  0  0  0  0  0
    0.3792   -2.6417    0.0000 C   0  0  0  0  0  0  0  0  0  0  0  0
    0.6667   -3.3042    0.0000 C   0  0  0  0  0  0  0  0  0  0  0  0
    0.3250   -3.9167    0.0000 N   0  0  0  0  0  0  0  0  0  0  0  0
   -0.8708   -2.9000    0.0000 C   0  0  0  0  0  0  0  0  0  0  0  0
   -0.8833   -3.6167    0.0000 C   0  0  0  0  0  0  0  0  0  0  0  0
   -0.3333   -4.0667    0.0000 C   0  0  0  0  0  0  0  0  0  0  0  0
   -0.4958   -1.7750    0.0000 C   0  0  0  0  0  0  0  0  0  0  0  0
    0.8875   -2.1375    0.0000 C   0  0  0  0  0  0  0  0  0  0  0  0
    0.6875   -1.4625    0.0000 N   0  0  0  0  0  0  0  0  0  0  0  0
    0.8292   -4.4417    0.0000 C   0  0  0  0  0  0  0  0  0  0  0  0
    1.3750   -3.4167    0.0000 C   0  0  0  0  0  0  0  0  0  0  0  0
    1.4625   -4.1250    0.0000 C   0  0  0  0  0  0  0  0  0  0  0  0
   -0.0083   -1.2750    0.0000 C   0  0  0  0  0  0  0  0  0  0  0  0
   -1.5000   -3.9667    0.0000 C   0  0  0  0  0  0  0  0  0  0  0  0
   -1.4750   -2.5417    0.0000 C   0  0  0  0  0  0  0  0  0  0  0  0
    1.1750   -0.9542    0.0000 C   0  0  0  0  0  0  0  0  0  0  0  0
   -2.1083   -3.5917    0.0000 C   0  0  0  0  0  0  0  0  0  0  0  0
   -2.0958   -2.8875    0.0000 C   0  0  0  0  0  0  0  0  0  0  0  0
  2  4  1  0
  3  1  1  0
  4  3  2  0
  5  1  2  0
  6  2  2  0
  7  1  1  0
  8  2  1  0
 10  9  1  0
 11 10  1  0
 12 11  1  0
 13  9  1  0
 14 13  2  0
 15 14  1  0
 16  9  1  0
 17 10  1  0
 18 17  1  0
 19 12  1  0
 20 11  2  0
 21 20  1  0
 22 16  1  0
 23 14  1  0
 24 13  1  0
 25 18  1  0
 26 23  2  0
 27 24  2  0
 18 22  1  0
 12 15  1  0
 27 26  1  0
 19 21  2  0
M  END
> <chembl_id>
CHEMBL2106459

> <chembl_pref_name>
APTAZAPINE MALEATE

$$$$

     RDKit          2D

 19 18  0  0  0  0  0  0  0  0999 V2000
    5.1917   -6.8125    0.0000 Cl  0  0  0  0  0  0  0  0  0  0  0  0
    5.1750   -4.9292    0.0000 C   0  0  0  0  0  0  0  0  0  0  0  0
    6.3917   -4.9292    0.0000 C   0  0  0  0  0  0  0  0  0  0  0  0
    5.7875   -4.5875    0.0000 N   0  0  0  0  0  0  0  0  0  0  0  0
    4.5667   -4.5750    0.0000 N   0  0  0  0  0  0  0  0  0  0  0  0
    2.7125   -4.9167    0.0000 C   0  0  0  0  0  0  0  0  0  0  0  0
    3.3167   -4.5750    0.0000 C   0  0  0  0  0  0  0  0  0  0  0  0
    5.1625   -5.6375    0.0000 N   0  0  0  0  0  0  0  0  0  0  0  0
    6.3917   -5.6500    0.0000 N   0  0  0  0  0  0  0  0  0  0  0  0
    7.0167   -4.5875    0.0000 N   0  0  0  0  0  0  0  0  0  0  0  0
    3.9292   -4.9167    0.0000 C   0  0  0  0  0  0  0  0  0  0  0  0
    2.7125   -5.6375    0.0000 C   0  0  0  0  0  0  0  0  0  0  0  0
    3.3167   -5.9792    0.0000 C   0  0  0  0  0  0  0  0  0  0  0  0
    2.0875   -4.5750    0.0000 Cl  0  0  0  0  0  0  0  0  0  0  0  0
    3.9292   -5.6375    0.0000 C   0  0  0  0  0  0  0  0  0  0  0  0
    2.0875   -5.9917    0.0000 Cl  0  0  0  0  0  0  0  0  0  0  0  0
    7.6292   -4.9292    0.0000 C   0  0  0  0  0  0  0  0  0  0  0  0
    7.6292   -5.6500    0.0000 C   0  0  0  0  0  0  0  0  0  0  0  0
    8.2375   -4.5875    0.0000 C   0  0  0  0  0  0  0  0  0  0  0  0
  3  4  1  0
  4  2  1  0
  5  2  1  0
  6  7  1  0
  7 11  2  0
  8  2  2  0
  9  3  2  0
 10  3  1  0
 11  5  1  0
 12 13  1  0
 13 15  2  0
 14  6  1  0
 15 11  1  0
 16 12  1  0
 17 10  1  0
 18 17  1  0
 19 17  1  0
  6 12  2  0
M  END
> <chembl_id>
CHEMBL2107534

> <chembl_pref_name>
CHLORPROGUANIL HYDROCHLORIDE

$$$$

     RDKit          2D

 30 32  0  0  0  0  0  0  0  0999 V2000
    3.4292    1.6458    0.0000 C   0  0  0  0  0  0  0  0  0  0  0  0
    3.4292   -0.3750    0.0000 C   0  0  0  0  0  0  0  0  0  0  0  0
    2.4042    1.0833    0.0000 C   0  0  0  0  0  0  0  0  0  0  0  0
    2.4042    0.0833    0.0000 C   0  0  0  0  0  0  0  0  0  0  0  0
    4.1167    1.1833    0.0000 O   0  0  0  0  0  0  0  0  0  0  0  0
    4.2667    0.2333    0.0000 O   0  0  0  0  0  0  0  0  0  0  0  0
    3.4292   -1.3167    0.0000 O   0  0  0  0  0  0  0  0  0  0  0  0
    3.4667    2.6583    0.0000 O   0  0  0  0  0  0  0  0  0  0  0  0
   -0.3958    1.1500    0.0000 N   0  0  0  0  0  0  0  0  0  0  0  0
   -0.8208    0.2333    0.0000 C   0  0  0  0  0  0  0  0  0  0  0  0
   -0.8208    2.0583    0.0000 C   0  0  0  0  0  0  0  0  0  0  0  0
   -1.8083    0.0083    0.0000 N   0  0  0  0  0  0  0  0  0  0  0  0
   -0.0958    2.7500    0.0000 N   0  0  0  0  0  0  0  0  0  0  0  0
    0.6167    1.2833    0.0000 N   0  0  0  0  0  0  0  0  0  0  0  0
   -0.2000   -0.5542    0.0000 N   0  0  0  0  0  0  0  0  0  0  0  0
    0.8000    2.3000    0.0000 C   0  0  0  0  0  0  0  0  0  0  0  0
   -2.5833    0.6458    0.0000 C   0  0  0  0  0  0  0  0  0  0  0  0
   -1.8083    2.2833    0.0000 C   0  0  0  0  0  0  0  0  0  0  0  0
   -2.5833    1.6625    0.0000 C   0  0  0  0  0  0  0  0  0  0  0  0
    1.0750   -2.1167    0.0000 N   0  0  0  0  0  0  0  0  0  0  0  0
   -0.5833   -1.4917    0.0000 C   0  0  0  0  0  0  0  0  0  0  0  0
    0.7875   -0.3792    0.0000 C   0  0  0  0  0  0  0  0  0  0  0  0
    0.0292   -2.2792    0.0000 C   0  0  0  0  0  0  0  0  0  0  0  0
    1.4292   -1.1750    0.0000 C   0  0  0  0  0  0  0  0  0  0  0  0
    1.6875    2.7708    0.0000 C   0  0  0  0  0  0  0  0  0  0  0  0
    1.7375   -2.8625    0.0000 C   0  0  0  0  0  0  0  0  0  0  0  0
   -3.4625    0.1250    0.0000 C   0  0  0  0  0  0  0  0  0  0  0  0
   -3.4625    2.1583    0.0000 C   0  0  0  0  0  0  0  0  0  0  0  0
   -4.3458    0.6458    0.0000 C   0  0  0  0  0  0  0  0  0  0  0  0
   -4.3458    1.6625    0.0000 C   0  0  0  0  0  0  0  0  0  0  0  0
  2  4  1  0
  3  1  1  0
  4  3  2  0
  5  1  2  0
  6  2  2  0
  7  2  1  0
  8  1  1  0
 10  9  1  0
 11  9  1  0
 12 10  2  0
 13 11  2  0
 14  9  1  0
 15 10  1  0
 16 14  2  0
 17 12  1  0
 18 11  1  0
 19 18  1  0
 20 24  1  0
 21 15  1  0
 22 15  1  0
 23 21  1  0
 24 22  1  0
 25 16  1  0
 26 20  1  0
 27 17  1  0
 28 19  1  0
 29 27  2  0
 30 28  2  0
 13 16  1  0
 17 19  2  0
 23 20  1  0
 29 30  1  0
M  END
> <chembl_id>
CHEMBL2105924

> <chembl_pref_name>
BATELAPINE MALEATE

$$$$

     RDKit          2D

 45 49  0  0  1  0  0  0  0  0999 V2000
   -1.3458   -1.8250    0.0000 C   0  0  0  0  0  0  0  0  0  0  0  0
   -2.8000   -1.8250    0.0000 C   0  0  0  0  0  0  0  0  0  0  0  0
   -2.0833   -1.3917    0.0000 C   0  0  0  0  0  0  0  0  0  0  0  0
   -1.3458   -2.6792    0.0000 C   0  0  0  0  0  0  0  0  0  0  0  0
   -2.8000   -2.6792    0.0000 C   0  0  0  0  0  0  0  0  0  0  0  0
   -2.0833   -3.1042    0.0000 N   0  0  0  0  0  0  0  0  0  0  0  0
   -0.6083    1.1083    0.0000 N   0  0  0  0  0  0  0  0  0  0  0  0
   -2.0583   -0.5667    0.0000 C   0  0  0  0  0  0  0  0  0  0  0  0
    2.1792    1.1833    0.0000 C   0  0  0  0  0  0  0  0  0  0  0  0
   -3.5250   -1.4042    0.0000 C   0  0  0  0  0  0  0  0  0  0  0  0
   -0.6208   -1.4167    0.0000 C   0  0  0  0  0  0  0  0  0  0  0  0
   -1.3333    0.6875    0.0000 C   0  0  0  0  0  0  0  0  0  0  0  0
   -1.3333   -0.1500    0.0000 C   0  0  0  0  0  0  0  0  0  0  0  0
    2.1792   -0.4917    0.0000 N   0  0  0  0  0  0  0  0  0  0  0  0
    1.4750    0.7625    0.0000 C   0  0  0  0  0  0  0  0  0  0  0  0
    2.9042    0.7625    0.0000 C   0  0  0  0  0  0  0  0  0  0  0  0
    0.0875    0.6875    0.0000 O   0  0  0  0  0  0  0  0  0  0  0  0
   -0.6208    1.9208    0.0000 O   0  0  0  0  0  0  0  0  0  0  0  0
    2.9042    2.0083    0.0000 C   0  0  0  0  0  0  0  0  0  0  0  0
    1.4542    1.9958    0.0000 C   0  0  0  0  0  0  0  0  0  0  0  0
   -4.2458   -1.8375    0.0000 O   0  0  0  0  0  0  0  0  0  0  0  0
   -0.6208   -0.6042    0.0000 O   0  0  0  0  0  0  0  0  0  0  0  0
    1.4750   -0.0750    0.0000 C   0  0  0  0  0  0  0  0  0  0  0  0
    2.9042   -0.0750    0.0000 C   0  0  0  0  0  0  0  0  0  0  0  0
    0.0750   -1.8375    0.0000 O   0  0  0  0  0  0  0  0  0  0  0  0
   -3.5125   -0.5792    0.0000 O   0  0  0  0  0  0  0  0  0  0  0  0
   -3.5250   -3.0917    0.0000 C   0  0  0  0  0  0  0  0  0  0  0  0
   -0.6083   -3.0917    0.0000 C   0  0  0  0  0  0  0  0  0  0  0  0
   -2.7625   -0.1500    0.0000 C   0  0  0  0  0  0  0  0  0  0  0  0
    2.1917   -1.4542    0.0000 C   0  0  0  0  0  0  0  0  0  0  0  0
    1.4750   -1.8500    0.0000 C   0  0  0  0  0  0  0  0  0  0  0  0
   -2.0583    1.1083    0.0000 C   0  0  0  0  0  0  0  0  0  0  0  0
   -2.7625    0.6875    0.0000 C   0  0  0  0  0  0  0  0  0  0  0  0
    0.7875   -1.4417    0.0000 C   0  0  0  0  0  0  0  0  0  0  0  0
    1.4542    2.8333    0.0000 C   0  0  0  0  0  0  0  0  0  0  0  0
    2.9042    2.8458    0.0000 C   0  0  0  0  0  0  0  0  0  0  0  0
    3.6167    1.5875    0.0000 C   0  0  0  0  0  0  0  0  0  0  0  0
    0.7292    1.5750    0.0000 C   0  0  0  0  0  0  0  0  0  0  0  0
   -4.2250   -0.1500    0.0000 C   0  0  0  0  0  0  0  0  0  0  0  0
    0.0250    1.9958    0.0000 C   0  0  0  0  0  0  0  0  0  0  0  0
    0.7292    3.2500    0.0000 C   0  0  0  0  0  0  0  0  0  0  0  0
    3.6167    3.2708    0.0000 C   0  0  0  0  0  0  0  0  0  0  0  0
    4.3417    2.0083    0.0000 C   0  0  0  0  0  0  0  0  0  0  0  0
    4.3417    2.8458    0.0000 C   0  0  0  0  0  0  0  0  0  0  0  0
    0.0250    2.8333    0.0000 C   0  0  0  0  0  0  0  0  0  0  0  0
  2  3  1  0
  3  1  1  0
  4  1  2  0
  5  6  1  0
  6  4  1  0
  7 12  1  0
  3  8  1  6
  9 16  1  0
 10  2  1  0
 11  1  1  0
 12 13  2  0
 13  8  1  0
 14 30  1  0
 15 23  1  0
 16 24  1  0
 17  7  1  0
 18  7  2  0
 19  9  1  0
 20  9  1  0
 21 10  2  0
 22 11  2  0
 23 14  1  0
 24 14  1  0
 25 11  1  0
 26 10  1  0
 27  5  1  0
 28  4  1  0
 29  8  2  0
 30 31  1  0
 31 34  1  0
 32 33  2  0
 33 29  1  0
 34 25  1  0
 35 20  2  0
 36 19  1  0
 37 19  2  0
 38 20  1  0
 39 26  1  0
 40 38  2  0
 41 35  1  0
 42 36  2  0
 43 37  1  0
 44 43  2  0
 45 40  1  0
  2  5  2  0
 12 32  1  0
 15  9  1  0
 41 45  2  0
 42 44  1  0
M  CHG  2   7   1  17  -1
M  END
> <chembl_id>
CHEMBL405355

> <chembl_pref_name>
NIGULDIPINE

$$$$

     RDKit          2D

 21 22  0  0  0  0  0  0  0  0999 V2000
   -4.7437    3.6241    0.0000 C   0  0  0  0  0  0  0  0  0  0  0  0
   -5.4582    3.2116    0.0000 C   0  0  0  0  0  0  0  0  0  0  0  0
   -5.4582    2.3866    0.0000 C   0  0  0  0  0  0  0  0  0  0  0  0
   -4.7437    1.9741    0.0000 C   0  0  0  0  0  0  0  0  0  0  0  0
   -4.0292    2.3866    0.0000 C   0  0  0  0  0  0  0  0  0  0  0  0
   -4.0292    3.2116    0.0000 C   0  0  0  0  0  0  0  0  0  0  0  0
   -6.1727    1.9741    0.0000 C   0  0  0  0  0  0  0  0  0  0  0  0
   -3.3148    3.6241    0.0000 C   0  0  0  0  0  0  0  0  0  0  0  0
   -2.6003    3.2116    0.0000 C   0  0  0  0  0  0  0  0  0  0  0  0
   -3.3148    4.4491    0.0000 O   0  0  0  0  0  0  0  0  0  0  0  0
   -1.8858    3.6241    0.0000 C   0  0  0  0  0  0  0  0  0  0  0  0
   -1.1714    3.2116    0.0000 N   0  0  0  0  0  0  0  0  0  0  0  0
   -1.1713    2.3866    0.0000 C   0  0  0  0  0  0  0  0  0  0  0  0
   -0.4569    1.9741    0.0000 C   0  0  0  0  0  0  0  0  0  0  0  0
    0.2576    2.3866    0.0000 C   0  0  0  0  0  0  0  0  0  0  0  0
    0.2576    3.2116    0.0000 C   0  0  0  0  0  0  0  0  0  0  0  0
   -0.4569    3.6241    0.0000 C   0  0  0  0  0  0  0  0  0  0  0  0
   -2.6003    2.3866    0.0000 C   0  0  0  0  0  0  0  0  0  0  0  0
   -6.1727    1.1491    0.0000 H   0  0  0  0  0  0  0  0  0  0  0  0
   -6.8872    2.3866    0.0000 H   0  0  0  0  0  0  0  0  0  0  0  0
   -6.8872    1.5616    0.0000 H   0  0  0  0  0  0  0  0  0  0  0  0
  1  2  1  0
  1  6  2  0
  2  3  2  0
  3  4  1  0
  4  5  2  0
  5  6  1  0
  3  7  1  0
  6  8  1  0
  8  9  1  0
  8 10  2  0
  9 11  1  0
 11 12  1  0
 12 13  1  0
 17 12  1  0
 13 14  1  0
 14 15  1  0
 15 16  1  0
 16 17  1  0
  9 18  1  0
  7 19  1  0
  7 20  1  0
  7 21  1  0
M  ISO  3  19   2  20   2  21   2
M  END
> <chembl_id>
CHEMBL2107740

> <chembl_pref_name>
DEUTOLPERISONE

$$$$

     RDKit          2D

 35 35  0  0  0  0  0  0  0  0999 V2000
   -0.2708   -0.7250    0.0000 C   0  0  0  0  0  0  0  0  0  0  0  0
    0.4792    0.5208    0.0000 C   0  0  0  0  0  0  0  0  0  0  0  0
    1.2292   -0.7667    0.0000 C   0  0  0  0  0  0  0  0  0  0  0  0
   -0.2708    0.0833    0.0000 C   0  0  0  0  0  0  0  0  0  0  0  0
    0.4792   -1.1792    0.0000 C   0  0  0  0  0  0  0  0  0  0  0  0
    1.2292    0.1083    0.0000 C   0  0  0  0  0  0  0  0  0  0  0  0
   -1.0250   -1.1542    0.0000 N   0  0  0  0  0  0  0  0  0  0  0  0
    0.4792    1.4000    0.0000 C   0  0  0  0  0  0  0  0  0  0  0  0
    1.9750   -1.2125    0.0000 C   0  0  0  0  0  0  0  0  0  0  0  0
   -1.0250   -1.9875    0.0000 C   0  0  0  0  0  0  0  0  0  0  0  0
   -0.2458    1.8333    0.0000 N   0  0  0  0  0  0  0  0  0  0  0  0
    2.7292   -0.7667    0.0000 N   0  0  0  0  0  0  0  0  0  0  0  0
   -1.8833   -0.5542    0.0000 C   0  0  0  0  0  0  0  0  0  0  0  0
    1.2375    1.8208    0.0000 O   0  0  0  0  0  0  0  0  0  0  0  0
    1.9750   -2.0625    0.0000 O   0  0  0  0  0  0  0  0  0  0  0  0
   -0.1500   -2.5792    0.0000 O   0  0  0  0  0  0  0  0  0  0  0  0
    0.4792   -2.0417    0.0000 I   0  0  0  0  0  0  0  0  0  0  0  0
    2.0042    0.5375    0.0000 I   0  0  0  0  0  0  0  0  0  0  0  0
   -0.9625    0.5208    0.0000 I   0  0  0  0  0  0  0  0  0  0  0  0
   -2.7208   -1.0500    0.0000 C   0  0  0  0  0  0  0  0  0  0  0  0
   -1.0083    1.4125    0.0000 C   0  0  0  0  0  0  0  0  0  0  0  0
    2.7292    0.0833    0.0000 C   0  0  0  0  0  0  0  0  0  0  0  0
   -1.7708    1.9458    0.0000 C   0  0  0  0  0  0  0  0  0  0  0  0
    3.4667    0.5208    0.0000 C   0  0  0  0  0  0  0  0  0  0  0  0
   -2.7208   -1.9417    0.0000 O   0  0  0  0  0  0  0  0  0  0  0  0
   -1.7625    2.6708    0.0000 O   0  0  0  0  0  0  0  0  0  0  0  0
    4.2417    0.1083    0.0000 O   0  0  0  0  0  0  0  0  0  0  0  0
   -1.7458   -2.6042    0.0000 C   0  0  0  0  0  0  0  0  0  0  0  0
   -3.2583    2.2583    0.0000 O   0  0  0  0  0  0  0  0  0  0  0  0
    4.1667    1.7708    0.0000 O   0  0  0  0  0  0  0  0  0  0  0  0
   -3.5833    0.5708    0.0000 O   0  0  0  0  0  0  0  0  0  0  0  0
    3.4875    1.4125    0.0000 C   0  0  0  0  0  0  0  0  0  0  0  0
   -2.5500    1.5083    0.0000 C   0  0  0  0  0  0  0  0  0  0  0  0
   -3.5833   -0.4875    0.0000 C   0  0  0  0  0  0  0  0  0  0  0  0
   -4.3458    1.0333    0.0000 C   0  0  0  0  0  0  0  0  0  0  0  0
  2  4  2  0
  3  5  1  0
  4  1  1  0
  5  1  2  0
  6  3  2  0
  7  1  1  0
  8  2  1  0
  9  3  1  0
 10  7  1  0
 11  8  1  0
 12  9  1  0
 13  7  1  0
 14  8  2  0
 15  9  2  0
 16 10  2  0
 17  5  1  0
 18  6  1  0
 19  4  1  0
 20 13  1  0
 21 11  1  0
 22 12  1  0
 23 21  1  0
 24 22  1  0
 25 20  1  0
 26 23  1  0
 27 24  1  0
 28 10  1  0
 29 33  1  0
 30 32  1  0
 31 34  1  0
 32 24  1  0
 33 23  1  0
 34 20  1  0
 35 31  1  0
  2  6  1  0
M  END
> <chembl_id>
CHEMBL2104783

> <chembl_pref_name>
IOPENTOL

$$$$

     RDKit          2D

 21 22  0  0  0  0  0  0  0  0999 V2000
    1.4167   -0.3542    0.0000 C   0  0  0  0  0  0  0  0  0  0  0  0
    0.4542    0.1708    0.0000 C   0  0  0  0  0  0  0  0  0  0  0  0
    2.4042   -0.8792    0.0000 C   0  0  0  0  0  0  0  0  0  0  0  0
    1.9625    0.6333    0.0000 C   0  0  0  0  0  0  0  0  0  0  0  0
   -2.4708   -0.4250    0.0000 N   0  0  0  0  0  0  0  0  0  0  0  0
   -1.5083    0.2208    0.0000 C   0  0  0  0  0  0  0  0  0  0  0  0
   -0.4958   -0.4125    0.0000 C   0  0  0  0  0  0  0  0  0  0  0  0
   -0.4958   -1.4667    0.0000 O   0  0  0  0  0  0  0  0  0  0  0  0
   -3.4000    0.1583    0.0000 C   0  0  0  0  0  0  0  0  0  0  0  0
    3.1250    0.6333    0.0000 C   0  0  0  0  0  0  0  0  0  0  0  0
    2.4042   -2.0292    0.0000 C   0  0  0  0  0  0  0  0  0  0  0  0
    3.3542   -0.3250    0.0000 C   0  0  0  0  0  0  0  0  0  0  0  0
    1.3917    1.5750    0.0000 C   0  0  0  0  0  0  0  0  0  0  0  0
   -4.3458   -0.3792    0.0000 C   0  0  0  0  0  0  0  0  0  0  0  0
   -3.3583    1.2750    0.0000 C   0  0  0  0  0  0  0  0  0  0  0  0
    3.4125   -2.5750    0.0000 C   0  0  0  0  0  0  0  0  0  0  0  0
    4.3250   -0.8667    0.0000 C   0  0  0  0  0  0  0  0  0  0  0  0
    1.9167    2.5625    0.0000 C   0  0  0  0  0  0  0  0  0  0  0  0
    3.6542    1.6333    0.0000 C   0  0  0  0  0  0  0  0  0  0  0  0
    3.0792    2.5833    0.0000 C   0  0  0  0  0  0  0  0  0  0  0  0
    4.3417   -1.9667    0.0000 C   0  0  0  0  0  0  0  0  0  0  0  0
  2  1  1  0
  3  1  1  0
  4  1  1  0
  5  6  1  0
  6  7  1  0
  7  2  1  0
  8  7  1  0
  9  5  1  0
 10  4  2  0
 11  3  2  0
 12  3  1  0
 13  4  1  0
 14  9  1  0
 15  9  1  0
 16 11  1  0
 17 12  2  0
 18 13  2  0
 19 10  1  0
 20 18  1  0
 21 17  1  0
 19 20  2  0
 16 21  2  0
M  END
> <chembl_id>
CHEMBL2106315

> <chembl_pref_name>
DROBULINE

$$$$

     RDKit          2D

 21 23  0  0  0  0  0  0  0  0999 V2000
   15.5089   -4.7355    0.0000 C   0  0  0  0  0  0  0  0  0  0  0  0
   15.8351   -5.4916    0.0000 C   0  0  0  0  0  0  0  0  0  0  0  0
   15.4300   -6.2456    0.0000 N   0  0  0  0  0  0  0  0  0  0  0  0
   14.6546   -6.3874    0.0000 C   0  0  0  0  0  0  0  0  0  0  0  0
   14.0419   -5.8620    0.0000 C   0  0  0  0  0  0  0  0  0  0  0  0
   12.6428   -5.0670    0.0000 C   0  0  0  0  0  0  0  0  0  0  0  0
   12.6517   -5.8760    0.0000 C   0  0  0  0  0  0  0  0  0  0  0  0
   13.3515   -6.2693    0.0000 C   0  0  0  0  0  0  0  0  0  0  0  0
   14.0369   -5.0560    0.0000 C   0  0  0  0  0  0  0  0  0  0  0  0
   14.6983   -4.5318    0.0000 N   0  0  0  0  0  0  0  0  0  0  0  0
   14.4041   -3.7407    0.0000 C   0  0  0  0  0  0  0  0  0  0  0  0
   13.5608   -3.7761    0.0000 N   0  0  0  0  0  0  0  0  0  0  0  0
   13.3340   -4.5890    0.0000 C   0  0  0  0  0  0  0  0  0  0  0  0
   16.6593   -5.5270    0.0000 C   0  0  0  0  0  0  0  0  0  0  0  0
   14.8607   -3.0536    0.0000 S   0  0  0  0  0  0  0  0  0  0  0  0
   15.8375   -6.9542    0.0000 C   0  0  0  0  0  0  0  0  0  0  0  0
   15.4238   -7.6679    0.0000 C   0  0  0  0  0  0  0  0  0  0  0  0
   15.8351   -8.3831    0.0000 C   0  0  0  0  0  0  0  0  0  0  0  0
   15.4214   -9.0969    0.0000 C   0  0  0  0  0  0  0  0  0  0  0  0
   16.6601   -8.3845    0.0000 C   0  0  0  0  0  0  0  0  0  0  0  0
   13.3602   -7.0942    0.0000 Cl  0  0  0  0  0  0  0  0  0  0  0  0
  1  2  1  0
  5  9  2  0
 10  1  1  0
 10 11  1  0
 11 12  1  0
 12 13  1  0
 13  9  1  0
 13  6  2  0
  2 14  1  6
  2  3  1  0
 11 15  2  0
  6  7  1  0
  3 16  1  0
  3  4  1  0
 16 17  1  0
  7  8  2  0
 17 18  2  0
  8  5  1  0
 18 19  1  0
  9 10  1  0
 18 20  1  0
  4  5  1  0
  8 21  1  0
M  END
> <chembl_id>
CHEMBL58711

> <chembl_pref_name>
TIVIRAPINE

$$$$

     RDKit          2D

 67 73  0  0  0  0  0  0  0  0999 V2000
   12.9490   -2.8760    0.0000 C   0  0  0  0  0  0  0  0  0  0  0  0
   12.2121   -3.3172    0.0000 C   0  0  0  0  0  0  0  0  0  0  0  0
   12.2121   -4.1413    0.0000 C   0  0  0  0  0  0  0  0  0  0  0  0
   12.9345   -2.0278    0.0000 C   0  0  0  0  0  0  0  0  0  0  0  0
   13.6277   -3.2736    0.0000 C   0  0  0  0  0  0  0  0  0  0  0  0
   14.3936    0.4349    0.0000 C   0  0  0  0  0  0  0  0  0  0  0  0
   13.6277   -4.1413    0.0000 C   0  0  0  0  0  0  0  0  0  0  0  0
   11.4171   -4.4274    0.0000 O   0  0  0  0  0  0  0  0  0  0  0  0
   11.4171   -3.0845    0.0000 C   0  0  0  0  0  0  0  0  0  0  0  0
    6.9136    0.5222    0.0000 C   0  0  0  0  0  0  0  0  0  0  0  0
   12.9490   -4.5388    0.0000 C   0  0  0  0  0  0  0  0  0  0  0  0
   15.1450   -0.0014    0.0000 O   0  0  0  0  0  0  0  0  0  0  0  0
    5.3817    0.1004    0.0000 C   0  0  0  0  0  0  0  0  0  0  0  0
    8.5667    0.5222    0.0000 C   0  0  0  0  0  0  0  0  0  0  0  0
   13.6277   -1.6497    0.0000 O   0  0  0  0  0  0  0  0  0  0  0  0
    8.1546    1.2348    0.0000 O   0  0  0  0  0  0  0  0  0  0  0  0
    4.9745    0.8130    0.0000 O   0  0  0  0  0  0  0  0  0  0  0  0
    8.1546   -0.1904    0.0000 C   0  0  0  0  0  0  0  0  0  0  0  0
    4.9745   -0.6122    0.0000 C   0  0  0  0  0  0  0  0  0  0  0  0
    7.3305   -0.1904    0.0000 C   0  0  0  0  0  0  0  0  0  0  0  0
    3.7335    0.1004    0.0000 C   0  0  0  0  0  0  0  0  0  0  0  0
   10.0404    0.4882    0.0000 C   0  0  0  0  0  0  0  0  0  0  0  0
    7.3305    1.2348    0.0000 C   0  0  0  0  0  0  0  0  0  0  0  0
   14.3936   -0.4037    0.0000 C   0  0  0  0  0  0  0  0  0  0  0  0
   13.6519    0.8470    0.0000 O   0  0  0  0  0  0  0  0  0  0  0  0
    4.1504   -0.6122    0.0000 C   0  0  0  0  0  0  0  0  0  0  0  0
   15.7801    0.4155    0.0000 C   0  0  0  0  0  0  0  0  0  0  0  0
   13.6277   -0.8109    0.0000 C   0  0  0  0  0  0  0  0  0  0  0  0
    4.1504    0.8130    0.0000 C   0  0  0  0  0  0  0  0  0  0  0  0
   10.7821    0.8954    0.0000 C   0  0  0  0  0  0  0  0  0  0  0  0
    6.0943    0.5173    0.0000 O   0  0  0  0  0  0  0  0  0  0  0  0
    9.2744    0.9390    0.0000 O   0  0  0  0  0  0  0  0  0  0  0  0
   11.4995    0.4882    0.0000 C   0  0  0  0  0  0  0  0  0  0  0  0
   10.9421   -3.7002    0.0000 C   0  0  0  0  0  0  0  0  0  0  0  0
   11.4171   -2.2459    0.0000 C   0  0  0  0  0  0  0  0  0  0  0  0
   12.2121   -1.6060    0.0000 O   0  0  0  0  0  0  0  0  0  0  0  0
   10.8645   -1.8387    0.0000 C   0  0  0  0  0  0  0  0  0  0  0  0
   12.9490   -0.3941    0.0000 C   0  0  0  0  0  0  0  0  0  0  0  0
   12.9490    0.4736    0.0000 C   0  0  0  0  0  0  0  0  0  0  0  0
   10.0404   -0.4037    0.0000 C   0  0  0  0  0  0  0  0  0  0  0  0
   15.7801    1.1960    0.0000 C   0  0  0  0  0  0  0  0  0  0  0  0
   10.8645   -0.9418    0.0000 C   0  0  0  0  0  0  0  0  0  0  0  0
   12.2266   -2.4786    0.0000 O   0  0  0  0  0  0  0  0  0  0  0  0
   14.4033    1.1960    0.0000 C   0  0  0  0  0  0  0  0  0  0  0  0
   15.1450    1.6129    0.0000 C   0  0  0  0  0  0  0  0  0  0  0  0
   12.2266    0.8954    0.0000 C   0  0  0  0  0  0  0  0  0  0  0  0
   16.4345    0.0374    0.0000 C   0  0  0  0  0  0  0  0  0  0  0  0
   12.9636   -5.3629    0.0000 O   0  0  0  0  0  0  0  0  0  0  0  0
    2.9094    0.1004    0.0000 O   0  0  0  0  0  0  0  0  0  0  0  0
    6.9184   -0.9031    0.0000 O   0  0  0  0  0  0  0  0  0  0  0  0
    3.7383   -1.3248    0.0000 O   0  0  0  0  0  0  0  0  0  0  0  0
   14.3257   -4.5728    0.0000 C   0  0  0  0  0  0  0  0  0  0  0  0
   10.7821    1.7147    0.0000 C   0  0  0  0  0  0  0  0  0  0  0  0
    6.9184    1.9474    0.0000 C   0  0  0  0  0  0  0  0  0  0  0  0
    3.7383    1.5305    0.0000 C   0  0  0  0  0  0  0  0  0  0  0  0
    9.3229   -0.8109    0.0000 C   0  0  0  0  0  0  0  0  0  0  0  0
   16.4781    1.6274    0.0000 C   0  0  0  0  0  0  0  0  0  0  0  0
   16.4345   -0.7189    0.0000 C   0  0  0  0  0  0  0  0  0  0  0  0
   17.0889    0.4155    0.0000 C   0  0  0  0  0  0  0  0  0  0  0  0
    7.3354   -1.6157    0.0000 C   0  0  0  0  0  0  0  0  0  0  0  0
    4.1504   -2.0374    0.0000 C   0  0  0  0  0  0  0  0  0  0  0  0
   17.0889   -1.0970    0.0000 C   0  0  0  0  0  0  0  0  0  0  0  0
   12.9724    1.6369    0.0000 H   0  0  0  0  0  0  0  0  0  0  0  0
   14.6250   -1.4102    0.0000 H   0  0  0  0  0  0  0  0  0  0  0  0
   15.8132   -0.7475    0.0000 H   0  0  0  0  0  0  0  0  0  0  0  0
   12.1253   -5.3015    0.0000 H   0  0  0  0  0  0  0  0  0  0  0  0
   13.9534   -2.2889    0.0000 H   0  0  0  0  0  0  0  0  0  0  0  0
  2  1  1  0
  3  2  1  0
  1  4  1  0
  5  1  1  0
  6 24  1  1
  7  5  2  0
  8  3  1  0
  9  2  1  0
 10 23  1  0
 11  7  1  0
  6 12  1  0
 13 31  1  1
 14 32  1  1
 15  4  1  0
 16 14  1  0
 17 13  1  0
 18 14  1  0
 19 13  1  0
 20 18  1  0
 21 29  1  0
 22 40  1  0
 23 16  1  0
 24 28  1  0
 25  6  1  0
 26 19  1  0
 27 12  1  0
 28 15  1  0
 29 17  1  0
 30 33  2  0
 10 31  1  1
 22 32  1  6
 33 46  1  0
 34  9  1  0
 35  9  2  0
 36  4  2  0
 37 35  1  0
 38 28  1  0
 39 38  1  0
 40 42  1  0
 41 27  1  0
 42 37  2  0
  2 43  1  6
  6 44  1  0
 45 44  2  0
 39 46  1  0
 47 27  1  0
 11 48  1  1
 21 49  1  1
 20 50  1  6
 26 51  1  6
 52  7  1  0
 53 30  1  0
 23 54  1  6
 29 55  1  6
 40 56  1  6
 41 57  1  6
 47 58  1  0
 47 59  1  1
 60 50  1  0
 61 51  1  0
 62 58  1  0
 11  3  1  0
 34  8  1  0
 39 25  1  0
 45 41  1  0
 30 22  1  0
 10 20  1  0
 21 26  1  0
 39 63  1  6
 28 64  1  6
 27 65  1  6
  3 66  1  6
  1 67  1  1
M  END
> <chembl_id>
CHEMBL1630577

> <chembl_pref_name>
ABAMECTIN COMPONENT B1A

$$$$

     RDKit          2D

 22 22  0  0  0  0  0  0  0  0999 V2000
    4.1625   -4.9917    0.0000 C   0  0  0  0  0  0  0  0  0  0  0  0
    4.5167   -5.5917    0.0000 C   0  0  0  0  0  0  0  0  0  0  0  0
    4.5042   -4.3750    0.0000 C   0  0  0  0  0  0  0  0  0  0  0  0
    2.0667   -4.9875    0.0000 C   0  0  0  0  0  0  0  0  0  0  0  0
    2.4375   -5.5917    0.0000 N   0  0  0  0  0  0  0  0  0  0  0  0
    3.4667   -4.9917    0.0000 C   0  0  0  0  0  0  0  0  0  0  0  0
    3.1375   -5.5917    0.0000 C   0  0  0  0  0  0  0  0  0  0  0  0
    5.2042   -5.5792    0.0000 O   0  0  0  0  0  0  0  0  0  0  0  0
    1.3750   -4.9875    0.0000 O   0  0  0  0  0  0  0  0  0  0  0  0
    4.1500   -3.7792    0.0000 O   0  0  0  0  0  0  0  0  0  0  0  0
    7.5000   -5.5917    0.0000 N   0  0  0  0  0  0  0  0  0  0  0  0
    4.1750   -6.1792    0.0000 C   0  0  0  0  0  0  0  0  0  0  0  0
    6.2417   -4.9792    0.0000 C   0  0  0  0  0  0  0  0  0  0  0  0
    5.5625   -4.9792    0.0000 C   0  0  0  0  0  0  0  0  0  0  0  0
    6.6000   -5.5917    0.0000 C   0  0  0  0  0  0  0  0  0  0  0  0
    3.4917   -6.1792    0.0000 C   0  0  0  0  0  0  0  0  0  0  0  0
    6.5792   -4.3792    0.0000 O   0  0  0  0  0  0  0  0  0  0  0  0
    8.0917   -6.2792    0.0000 C   0  0  0  0  0  0  0  0  0  0  0  0
    2.4125   -4.3750    0.0000 C   0  0  0  0  0  0  0  0  0  0  0  0
    5.1875   -4.3750    0.0000 C   0  0  0  0  0  0  0  0  0  0  0  0
    7.7375   -6.8750    0.0000 C   0  0  0  0  0  0  0  0  0  0  0  0
    8.7667   -6.2792    0.0000 C   0  0  0  0  0  0  0  0  0  0  0  0
  2  1  1  0
  3  1  1  0
  4  5  1  0
  5  7  1  0
  6  1  2  0
  7  6  1  0
  8  2  1  0
  9  4  2  0
 10  3  2  0
 11 15  1  0
 12  2  2  0
 13 14  1  0
 14  8  1  0
 15 13  1  0
 16  7  2  0
 17 13  1  0
 18 11  1  0
 19  4  1  0
 20  3  1  0
 21 18  1  0
 22 18  1  0
 12 16  1  0
M  END
> <chembl_id>
CHEMBL2110821

> <chembl_pref_name>
DIACETOLOL

$$$$

     RDKit          2D

 36 35  0  0  0  0  0  0  0  0999 V2000
    9.2858   -6.1863    0.0000 N   0  0  0  0  0  0  0  0  0  0  0  0
   17.1464   -5.7740    0.0000 N   0  0  0  0  0  0  0  0  0  0  0  0
   17.1472   -4.9491    0.0000 C   0  0  0  0  0  0  0  0  0  0  0  0
    9.2851   -7.0113    0.0000 C   0  0  0  0  0  0  0  0  0  0  0  0
   16.4318   -6.1863    0.0000 C   0  0  0  0  0  0  0  0  0  0  0  0
   10.0004   -5.7740    0.0000 C   0  0  0  0  0  0  0  0  0  0  0  0
    9.8561   -7.3415    0.0000 N   0  0  0  0  0  0  0  0  0  0  0  0
   16.5762   -4.6189    0.0000 N   0  0  0  0  0  0  0  0  0  0  0  0
   16.4318   -6.8460    0.0000 N   0  0  0  0  0  0  0  0  0  0  0  0
   10.0004   -5.1144    0.0000 N   0  0  0  0  0  0  0  0  0  0  0  0
    8.5705   -7.4236    0.0000 N   0  0  0  0  0  0  0  0  0  0  0  0
   17.8618   -4.5368    0.0000 N   0  0  0  0  0  0  0  0  0  0  0  0
   10.7150   -6.1863    0.0000 N   0  0  0  0  0  0  0  0  0  0  0  0
   15.7172   -5.7740    0.0000 N   0  0  0  0  0  0  0  0  0  0  0  0
    8.5697   -8.2486    0.0000 C   0  0  0  0  0  0  0  0  0  0  0  0
   17.8626   -3.7118    0.0000 C   0  0  0  0  0  0  0  0  0  0  0  0
   11.4296   -5.7740    0.0000 C   0  0  0  0  0  0  0  0  0  0  0  0
   15.0027   -6.1863    0.0000 C   0  0  0  0  0  0  0  0  0  0  0  0
    7.8551   -8.6609    0.0000 C   0  0  0  0  0  0  0  0  0  0  0  0
   18.5772   -3.2995    0.0000 C   0  0  0  0  0  0  0  0  0  0  0  0
    7.1400   -8.2494    0.0000 C   0  0  0  0  0  0  0  0  0  0  0  0
   19.2923   -3.7110    0.0000 C   0  0  0  0  0  0  0  0  0  0  0  0
   18.5780   -2.4745    0.0000 C   0  0  0  0  0  0  0  0  0  0  0  0
    7.8543   -9.4859    0.0000 C   0  0  0  0  0  0  0  0  0  0  0  0
   12.1442   -6.1863    0.0000 C   0  0  0  0  0  0  0  0  0  0  0  0
   14.2880   -5.7740    0.0000 C   0  0  0  0  0  0  0  0  0  0  0  0
    7.1389  -10.7231    0.0000 C   0  0  0  0  0  0  0  0  0  0  0  0
   19.2933   -1.2373    0.0000 C   0  0  0  0  0  0  0  0  0  0  0  0
    7.1397   -9.8981    0.0000 C   0  0  0  0  0  0  0  0  0  0  0  0
   19.2926   -2.0622    0.0000 C   0  0  0  0  0  0  0  0  0  0  0  0
   13.5734   -6.1863    0.0000 C   0  0  0  0  0  0  0  0  0  0  0  0
   12.8588   -5.7740    0.0000 C   0  0  0  0  0  0  0  0  0  0  0  0
   19.8632   -3.3807    0.0000 C   0  0  0  0  0  0  0  0  0  0  0  0
    6.5690   -8.5796    0.0000 C   0  0  0  0  0  0  0  0  0  0  0  0
    6.5675  -11.0528    0.0000 C   0  0  0  0  0  0  0  0  0  0  0  0
   19.8647   -0.9077    0.0000 C   0  0  0  0  0  0  0  0  0  0  0  0
  2  3  1  0
  1  4  1  0
  2  5  1  0
  1  6  1  0
  4  7  2  0
  3  8  2  0
  5  9  2  0
  6 10  2  0
  4 11  1  0
  3 12  1  0
  6 13  1  0
  5 14  1  0
 11 15  1  0
 12 16  1  0
 13 17  1  0
 14 18  1  0
 15 19  1  0
 16 20  1  0
 19 21  1  0
 20 22  1  0
 20 23  1  0
 19 24  1  0
 17 25  1  0
 18 26  1  0
 24 29  1  0
 27 29  1  0
 23 30  1  0
 28 30  1  0
 26 31  1  0
 25 32  1  0
 31 32  1  0
 22 33  1  0
 21 34  1  0
 27 35  1  0
 28 36  1  0
M  END
> <chembl_id>
CHEMBL1195210

> <chembl_pref_name>
ALEXIDINE

$$$$

     RDKit          2D

 28 31  0  0  0  0  0  0  0  0999 V2000
    2.1527  -10.5547    0.0000 C   0  0  0  0  0  0  0  0  0  0  0  0
    2.1515  -11.3820    0.0000 C   0  0  0  0  0  0  0  0  0  0  0  0
    2.8663  -11.7949    0.0000 C   0  0  0  0  0  0  0  0  0  0  0  0
    2.8645  -10.1419    0.0000 C   0  0  0  0  0  0  0  0  0  0  0  0
    3.5799  -10.5510    0.0000 C   0  0  0  0  0  0  0  0  0  0  0  0
    3.5833  -11.3841    0.0000 C   0  0  0  0  0  0  0  0  0  0  0  0
    4.3025  -11.7954    0.0000 N   0  0  0  0  0  0  0  0  0  0  0  0
    5.0229  -11.3782    0.0000 C   0  0  0  0  0  0  0  0  0  0  0  0
    5.0195  -10.5451    0.0000 N   0  0  0  0  0  0  0  0  0  0  0  0
    4.2957  -10.1292    0.0000 C   0  0  0  0  0  0  0  0  0  0  0  0
    4.2911   -9.3043    0.0000 O   0  0  0  0  0  0  0  0  0  0  0  0
    5.7316  -10.1308    0.0000 C   0  0  0  0  0  0  0  0  0  0  0  0
    6.4476  -10.5428    0.0000 C   0  0  0  0  0  0  0  0  0  0  0  0
    7.1603  -10.1288    0.0000 C   0  0  0  0  0  0  0  0  0  0  0  0
    7.1582   -9.3029    0.0000 C   0  0  0  0  0  0  0  0  0  0  0  0
    6.4374   -8.8928    0.0000 C   0  0  0  0  0  0  0  0  0  0  0  0
    5.7277   -9.3091    0.0000 C   0  0  0  0  0  0  0  0  0  0  0  0
    5.7385  -11.7887    0.0000 S   0  0  0  0  0  0  0  0  0  0  0  0
    5.7407  -12.6137    0.0000 C   0  0  0  0  0  0  0  0  0  0  0  0
    5.0743  -13.1016    0.0000 S   0  0  0  0  0  0  0  0  0  0  0  0
    5.3314  -13.8856    0.0000 C   0  0  0  0  0  0  0  0  0  0  0  0
    6.1565  -13.8833    0.0000 N   0  0  0  0  0  0  0  0  0  0  0  0
    6.4091  -13.0980    0.0000 C   0  0  0  0  0  0  0  0  0  0  0  0
    4.8483  -14.5543    0.0000 N   0  0  0  0  0  0  0  0  0  0  0  0
    1.4381  -10.1423    0.0000 O   0  0  0  0  0  0  0  0  0  0  0  0
    1.4379   -9.3173    0.0000 C   0  0  0  0  0  0  0  0  0  0  0  0
    1.4367  -11.7940    0.0000 O   0  0  0  0  0  0  0  0  0  0  0  0
    0.7226  -11.3809    0.0000 C   0  0  0  0  0  0  0  0  0  0  0  0
  1  2  2  0
  2  3  1  0
  3  6  2  0
  5  4  2  0
  4  1  1  0
  5  6  1  0
  5 10  1  0
  6  7  1  0
  7  8  2  0
  8  9  1  0
  9 10  1  0
 10 11  2  0
 12 13  2  0
 13 14  1  0
 14 15  2  0
 15 16  1  0
 16 17  2  0
 17 12  1  0
  9 12  1  0
  8 18  1  0
 18 19  1  0
 19 20  1  0
 20 21  1  0
 21 22  2  0
 22 23  1  0
 23 19  2  0
 21 24  1  0
  1 25  1  0
 25 26  1  0
  2 27  1  0
 27 28  1  0
M  END
> <chembl_id>
CHEMBL2376069

> <chembl_pref_name>
None

$$$$

     RDKit          2D

 41 46  0  0  0  0  0  0  0  0999 V2000
    9.4377   -9.6429    0.0000 O   0  0  0  0  0  0  0  0  0  0  0  0
    5.5637   -6.4901    0.0000 N   0  0  0  0  0  0  0  0  0  0  0  0
    6.4019   -6.4901    0.0000 C   0  0  0  0  0  0  0  0  0  0  0  0
    5.0343   -5.9019    0.0000 C   0  0  0  0  0  0  0  0  0  0  0  0
    6.8872   -5.7843    0.0000 C   0  0  0  0  0  0  0  0  0  0  0  0
    5.2058   -5.0049    0.0000 C   0  0  0  0  0  0  0  0  0  0  0  0
    6.7205   -4.9999    0.0000 C   0  0  0  0  0  0  0  0  0  0  0  0
    5.1617   -7.2107    0.0000 C   0  0  0  0  0  0  0  0  0  0  0  0
    5.9313   -4.6225    0.0000 C   0  0  0  0  0  0  0  0  0  0  0  0
    6.3872   -7.9263    0.0000 N   0  0  0  0  0  0  0  0  0  0  0  0
    6.8136   -7.1960    0.0000 C   0  0  0  0  0  0  0  0  0  0  0  0
    4.2549   -6.1519    0.0000 N   0  0  0  0  0  0  0  0  0  0  0  0
    5.5343   -7.9263    0.0000 C   0  0  0  0  0  0  0  0  0  0  0  0
    7.7107   -6.0293    0.0000 C   0  0  0  0  0  0  0  0  0  0  0  0
    4.5490   -4.5196    0.0000 C   0  0  0  0  0  0  0  0  0  0  0  0
    6.7695   -8.7548    0.0000 C   0  0  0  0  0  0  0  0  0  0  0  0
    7.2989   -4.4117    0.0000 C   0  0  0  0  0  0  0  0  0  0  0  0
    3.6323   -5.6225    0.0000 C   0  0  0  0  0  0  0  0  0  0  0  0
    3.7990   -4.8137    0.0000 C   0  0  0  0  0  0  0  0  0  0  0  0
    8.2989   -5.4705    0.0000 C   0  0  0  0  0  0  0  0  0  0  0  0
    8.1028   -4.6617    0.0000 C   0  0  0  0  0  0  0  0  0  0  0  0
   11.3009   -6.3494    0.0000 N   0  0  0  0  0  0  0  0  0  0  0  0
   12.1391   -6.3494    0.0000 C   0  0  0  0  0  0  0  0  0  0  0  0
   10.7715   -5.7611    0.0000 C   0  0  0  0  0  0  0  0  0  0  0  0
   12.6244   -5.6435    0.0000 C   0  0  0  0  0  0  0  0  0  0  0  0
   10.9431   -4.8641    0.0000 C   0  0  0  0  0  0  0  0  0  0  0  0
   12.4577   -4.8592    0.0000 C   0  0  0  0  0  0  0  0  0  0  0  0
   10.8989   -7.0699    0.0000 C   0  0  0  0  0  0  0  0  0  0  0  0
   11.6686   -4.4818    0.0000 C   0  0  0  0  0  0  0  0  0  0  0  0
   12.1244   -7.7856    0.0000 N   0  0  0  0  0  0  0  0  0  0  0  0
   12.5509   -7.0552    0.0000 C   0  0  0  0  0  0  0  0  0  0  0  0
    9.9921   -6.0111    0.0000 N   0  0  0  0  0  0  0  0  0  0  0  0
   11.2715   -7.7856    0.0000 C   0  0  0  0  0  0  0  0  0  0  0  0
   13.4479   -5.8885    0.0000 C   0  0  0  0  0  0  0  0  0  0  0  0
   10.2862   -4.3788    0.0000 C   0  0  0  0  0  0  0  0  0  0  0  0
   12.5068   -8.6140    0.0000 C   0  0  0  0  0  0  0  0  0  0  0  0
   13.0362   -4.2709    0.0000 C   0  0  0  0  0  0  0  0  0  0  0  0
    9.3696   -5.4817    0.0000 C   0  0  0  0  0  0  0  0  0  0  0  0
    9.5363   -4.6729    0.0000 C   0  0  0  0  0  0  0  0  0  0  0  0
   14.0362   -5.3297    0.0000 C   0  0  0  0  0  0  0  0  0  0  0  0
   13.8400   -4.5209    0.0000 C   0  0  0  0  0  0  0  0  0  0  0  0
  3  2  1  0
  4  2  1  0
  5  3  1  0
  6  4  2  0
  7  5  2  0
  8  2  1  0
  9  6  1  0
 10 13  1  0
 11  3  1  0
 12  4  1  0
 13  8  1  0
 14  5  1  0
 15  6  1  0
 16 10  1  0
 17  7  1  0
 18 12  2  0
 19 18  1  0
 20 14  2  0
 21 20  1  0
 10 11  1  0
  9  7  1  0
 19 15  2  0
 21 17  2  0
 23 22  1  0
 24 22  1  0
 25 23  1  0
 26 24  2  0
 27 25  2  0
 28 22  1  0
 29 26  1  0
 30 33  1  0
 31 23  1  0
 32 24  1  0
 33 28  1  0
 34 25  1  0
 35 26  1  0
 36 30  1  0
 37 27  1  0
 38 32  2  0
 39 38  1  0
 40 34  2  0
 41 40  1  0
 30 31  1  0
 29 27  1  0
 39 35  2  0
 41 37  2  0
M  END
> <chembl_id>
CHEMBL5315116

> <chembl_pref_name>
MIRTAZAPINE HEMIHYDRATE

$$$$

     RDKit          2D

 22 24  0  0  0  0  0  0  0  0999 V2000
   -0.3333   -2.3042    0.0000 C   0  0  0  0  0  0  0  0  0  0  0  0
    0.8292   -2.3042    0.0000 N   0  0  0  0  0  0  0  0  0  0  0  0
   -0.7958   -0.2167    0.0000 C   0  0  0  0  0  0  0  0  0  0  0  0
    0.2750    0.2958    0.0000 C   0  0  0  0  0  0  0  0  0  0  0  0
   -1.0625   -1.3875    0.0000 C   0  0  0  0  0  0  0  0  0  0  0  0
    1.3167   -0.2167    0.0000 C   0  0  0  0  0  0  0  0  0  0  0  0
    1.5875   -1.3375    0.0000 C   0  0  0  0  0  0  0  0  0  0  0  0
   -1.6583    0.5875    0.0000 C   0  0  0  0  0  0  0  0  0  0  0  0
   -1.3708    1.7250    0.0000 N   0  0  0  0  0  0  0  0  0  0  0  0
   -2.2083    2.5333    0.0000 C   0  0  0  0  0  0  0  0  0  0  0  0
   -0.8125   -3.3750    0.0000 O   0  0  0  0  0  0  0  0  0  0  0  0
    0.2750    1.4583    0.0000 O   0  0  0  0  0  0  0  0  0  0  0  0
   -3.4333    2.3625    0.0000 O   0  0  0  0  0  0  0  0  0  0  0  0
    1.2792   -3.4000    0.0000 C   0  0  0  0  0  0  0  0  0  0  0  0
   -2.2000   -1.7417    0.0000 C   0  0  0  0  0  0  0  0  0  0  0  0
    2.1792    0.5875    0.0000 C   0  0  0  0  0  0  0  0  0  0  0  0
   -2.8125    0.2458    0.0000 C   0  0  0  0  0  0  0  0  0  0  0  0
    2.7125   -1.6917    0.0000 C   0  0  0  0  0  0  0  0  0  0  0  0
   -3.0833   -0.9250    0.0000 C   0  0  0  0  0  0  0  0  0  0  0  0
   -1.9250    3.5958    0.0000 C   0  0  0  0  0  0  0  0  0  0  0  0
    3.3292    0.2458    0.0000 C   0  0  0  0  0  0  0  0  0  0  0  0
    3.5792   -0.8667    0.0000 C   0  0  0  0  0  0  0  0  0  0  0  0
  2  1  1  0
  3  5  2  0
  4  3  1  0
  5  1  1  0
  6  7  2  0
  7  2  1  0
  8  3  1  0
  9  8  1  0
 10  9  1  0
 11  1  2  0
 12  4  2  0
 13 10  2  0
 14  2  1  0
 15  5  1  0
 16  6  1  0
 17 19  1  0
 18  7  1  0
 19 15  2  0
 20 10  1  0
 21 22  1  0
 22 18  2  0
  4  6  1  0
  8 17  2  0
 16 21  2  0
M  END
> <chembl_id>
CHEMBL2103994

> <chembl_pref_name>
ADOSOPINE

$$$$

     RDKit          2D

 27 30  0  0  0  0  0  0  0  0999 V2000
    0.9875    0.5833    0.0000 C   0  0  0  0  0  0  0  0  0  0  0  0
    1.3292    1.3208    0.0000 C   0  0  0  0  0  0  0  0  0  0  0  0
    0.1792    0.3833    0.0000 N   0  0  0  0  0  0  0  0  0  0  0  0
    2.1542    1.2208    0.0000 N   0  0  0  0  0  0  0  0  0  0  0  0
    0.9792    2.0625    0.0000 C   0  0  0  0  0  0  0  0  0  0  0  0
    2.3042    0.4208    0.0000 N   0  0  0  0  0  0  0  0  0  0  0  0
    1.5875    0.0208    0.0000 C   0  0  0  0  0  0  0  0  0  0  0  0
    0.0167   -0.4292    0.0000 C   0  0  0  0  0  0  0  0  0  0  0  0
    0.1750    2.2458    0.0000 N   0  0  0  0  0  0  0  0  0  0  0  0
   -0.4708    0.9000    0.0000 C   0  0  0  0  0  0  0  0  0  0  0  0
   -0.4750    1.7208    0.0000 C   0  0  0  0  0  0  0  0  0  0  0  0
   -0.9458   -1.4917    0.0000 N   0  0  0  0  0  0  0  0  0  0  0  0
   -0.7750   -0.6875    0.0000 C   0  0  0  0  0  0  0  0  0  0  0  0
   -1.3000   -3.1000    0.0000 N   0  0  0  0  0  0  0  0  0  0  0  0
    1.5000    2.7125    0.0000 O   0  0  0  0  0  0  0  0  0  0  0  0
    0.6167   -0.9792    0.0000 O   0  0  0  0  0  0  0  0  0  0  0  0
    2.7292    1.8083    0.0000 C   0  0  0  0  0  0  0  0  0  0  0  0
   -0.3375   -2.0417    0.0000 C   0  0  0  0  0  0  0  0  0  0  0  0
   -1.7250   -1.7417    0.0000 C   0  0  0  0  0  0  0  0  0  0  0  0
   -0.5125   -2.8417    0.0000 C   0  0  0  0  0  0  0  0  0  0  0  0
   -1.9083   -2.5417    0.0000 C   0  0  0  0  0  0  0  0  0  0  0  0
    1.4792   -0.8042    0.0000 C   0  0  0  0  0  0  0  0  0  0  0  0
   -1.1833    0.4833    0.0000 C   0  0  0  0  0  0  0  0  0  0  0  0
   -1.1958    2.1458    0.0000 C   0  0  0  0  0  0  0  0  0  0  0  0
   -1.4958   -3.9042    0.0000 C   0  0  0  0  0  0  0  0  0  0  0  0
   -1.9083    0.8958    0.0000 C   0  0  0  0  0  0  0  0  0  0  0  0
   -1.9083    1.7208    0.0000 C   0  0  0  0  0  0  0  0  0  0  0  0
  2  1  2  0
  3  1  1  0
  4  2  1  0
  5  2  1  0
  6  7  2  0
  7  1  1  0
  8  3  1  0
  9  5  1  0
 10  3  1  0
 11 10  2  0
 12 13  1  0
 13  8  1  0
 14 21  1  0
 15  5  2  0
 16  8  2  0
 17  4  1  0
 18 12  1  0
 19 12  1  0
 20 18  1  0
 21 19  1  0
 22  7  1  0
 23 10  1  0
 24 11  1  0
 25 14  1  0
 26 23  2  0
 27 26  1  0
  4  6  1  0
 11  9  1  0
 24 27  2  0
 20 14  1  0
M  END
> <chembl_id>
CHEMBL2105548

> <chembl_pref_name>
ZOLENZEPINE

$$$$

     RDKit          2D

 33 37  0  0  1  0  0  0  0  0999 V2000
    0.8667   -0.2917    0.0000 C   0  0  0  0  0  0  0  0  0  0  0  0
   -0.8708   -0.2917    0.0000 C   0  0  0  0  0  0  0  0  0  0  0  0
   -0.8708    0.6958    0.0000 C   0  0  0  0  0  0  0  0  0  0  0  0
    0.8667    0.6958    0.0000 C   0  0  0  0  0  0  0  0  0  0  0  0
    0.0000   -0.7917    0.0000 C   0  0  0  0  0  0  0  0  0  0  0  0
    0.0000    1.1958    0.0000 C   0  0  0  0  0  0  0  0  0  0  0  0
    1.7375   -0.7917    0.0000 O   0  0  0  0  0  0  0  0  0  0  0  0
   -1.7458   -0.7917    0.0000 O   0  0  0  0  0  0  0  0  0  0  0  0
    2.6125   -0.2917    0.0000 C   0  0  0  0  0  0  0  0  0  0  0  0
   -2.6208   -0.2917    0.0000 C   0  0  0  0  0  0  0  0  0  0  0  0
    1.7375    1.1958    0.0000 C   0  0  0  0  0  0  0  0  0  0  0  0
   -1.7458    1.1958    0.0000 C   0  0  0  0  0  0  0  0  0  0  0  0
   -2.6208    0.6958    0.0000 C   0  0  0  0  0  0  0  0  0  0  0  0
    2.6125    0.6958    0.0000 C   0  0  0  0  0  0  0  0  0  0  0  0
    0.0000    2.1708    0.0000 O   0  0  0  0  0  0  0  0  0  0  0  0
    3.4667   -0.7917    0.0000 C   0  0  0  0  0  0  0  0  0  0  0  0
   -3.4750   -0.7917    0.0000 C   0  0  0  0  0  0  0  0  0  0  0  0
   -0.4375   -1.7375    0.0000 C   0  0  0  0  0  0  0  0  0  0  0  0
    0.3417   -1.7667    0.0000 C   0  0  0  0  0  0  0  0  0  0  0  0
    3.4667   -1.7667    0.0000 O   0  0  0  0  0  0  0  0  0  0  0  0
   -3.4583   -1.7792    0.0000 O   0  0  0  0  0  0  0  0  0  0  0  0
    3.4667    1.2083    0.0000 C   0  0  0  0  0  0  0  0  0  0  0  0
   -3.4750    1.2083    0.0000 C   0  0  0  0  0  0  0  0  0  0  0  0
   -4.3458    0.7083    0.0000 C   0  0  0  0  0  0  0  0  0  0  0  0
    4.3417    0.7083    0.0000 C   0  0  0  0  0  0  0  0  0  0  0  0
   -4.3458   -0.2917    0.0000 C   0  0  0  0  0  0  0  0  0  0  0  0
    4.3417   -0.2917    0.0000 C   0  0  0  0  0  0  0  0  0  0  0  0
    2.6250   -2.2292    0.0000 C   0  0  0  0  0  0  0  0  0  0  0  0
   -4.3000   -2.2792    0.0000 C   0  0  0  0  0  0  0  0  0  0  0  0
    0.8667    1.5833    0.0000 H   0  0  0  0  0  0  0  0  0  0  0  0
    1.1667   -1.2792    0.0000 H   0  0  0  0  0  0  0  0  0  0  0  0
   -0.8708    1.5583    0.0000 H   0  0  0  0  0  0  0  0  0  0  0  0
   -1.0708   -1.2250    0.0000 H   0  0  0  0  0  0  0  0  0  0  0  0
  2  5  1  0
  3  2  1  0
  4  1  1  0
  5  1  1  0
  6  4  1  0
  7  1  1  0
  8  2  1  0
  9  7  1  0
 10  8  1  0
 11  4  1  0
 12  3  1  0
 13 10  2  0
 14  9  2  0
 15  6  2  0
 16  9  1  0
 17 10  1  0
 18  5  1  0
 19  5  1  0
 20 16  1  0
 21 17  1  0
 22 14  1  0
 23 13  1  0
 24 26  1  0
 25 27  1  0
 26 17  2  0
 27 16  2  0
 28 20  1  0
 29 21  1  0
  4 30  1  6
  1 31  1  6
  3 32  1  6
  2 33  1  6
  6  3  1  0
 11 14  1  0
 22 25  2  0
 12 13  1  0
 24 23  2  0
M  END
> <chembl_id>
CHEMBL2107005

> <chembl_pref_name>
PENTOMONE

$$$$

     RDKit          2D

 35 38  0  0  0  0  0  0  0  0999 V2000
    3.6417   -6.4542    0.0000 N   0  0  0  0  0  0  0  0  0  0  0  0
    3.9875   -7.0667    0.0000 O   0  0  0  0  0  0  0  0  0  0  0  0
    4.0042   -5.8417    0.0000 O   0  0  0  0  0  0  0  0  0  0  0  0
    2.9292   -6.4417    0.0000 C   0  0  0  0  0  0  0  0  0  0  0  0
    2.5875   -5.8292    0.0000 C   0  0  0  0  0  0  0  0  0  0  0  0
    2.5667   -7.0500    0.0000 C   0  0  0  0  0  0  0  0  0  0  0  0
    3.1042   -4.5625    0.0000 C   0  0  0  0  0  0  0  0  0  0  0  0
    1.8792   -5.8167    0.0000 C   0  0  0  0  0  0  0  0  0  0  0  0
    1.8542   -7.0417    0.0000 C   0  0  0  0  0  0  0  0  0  0  0  0
    2.5000   -4.2042    0.0000 C   0  0  0  0  0  0  0  0  0  0  0  0
    3.7167   -4.2042    0.0000 C   0  0  0  0  0  0  0  0  0  0  0  0
    1.5167   -6.4167    0.0000 C   0  0  0  0  0  0  0  0  0  0  0  0
    1.8792   -4.5542    0.0000 C   0  0  0  0  0  0  0  0  0  0  0  0
    2.5000   -3.5000    0.0000 C   0  0  0  0  0  0  0  0  0  0  0  0
    3.7167   -3.5000    0.0000 C   0  0  0  0  0  0  0  0  0  0  0  0
    4.3375   -4.5542    0.0000 C   0  0  0  0  0  0  0  0  0  0  0  0
    1.8792   -5.2667    0.0000 O   0  0  0  0  0  0  0  0  0  0  0  0
    1.2667   -4.2042    0.0000 O   0  0  0  0  0  0  0  0  0  0  0  0
    3.1042   -3.1417    0.0000 N   0  0  0  0  0  0  0  0  0  0  0  0
    1.8792   -3.1417    0.0000 C   0  0  0  0  0  0  0  0  0  0  0  0
    4.3375   -3.1417    0.0000 C   0  0  0  0  0  0  0  0  0  0  0  0
    4.9500   -4.2042    0.0000 O   0  0  0  0  0  0  0  0  0  0  0  0
    4.3375   -5.2667    0.0000 O   0  0  0  0  0  0  0  0  0  0  0  0
    0.6542   -4.5542    0.0000 C   0  0  0  0  0  0  0  0  0  0  0  0
    5.5625   -4.5542    0.0000 C   0  0  0  0  0  0  0  0  0  0  0  0
    6.1375   -4.1292    0.0000 C   0  0  0  0  0  0  0  0  0  0  0  0
    5.7792   -5.2292    0.0000 C   0  0  0  0  0  0  0  0  0  0  0  0
    6.7042   -4.5542    0.0000 C   0  0  0  0  0  0  0  0  0  0  0  0
    6.3542   -3.4667    0.0000 O   0  0  0  0  0  0  0  0  0  0  0  0
    5.5167   -3.7792    0.0000 H   0  0  0  0  0  0  0  0  0  0  0  0
    6.4917   -5.2292    0.0000 O   0  0  0  0  0  0  0  0  0  0  0  0
    7.2792   -4.1292    0.0000 C   0  0  0  0  0  0  0  0  0  0  0  0
    7.2042   -5.0542    0.0000 H   0  0  0  0  0  0  0  0  0  0  0  0
    7.0625   -3.4667    0.0000 C   0  0  0  0  0  0  0  0  0  0  0  0
    7.9542   -4.3542    0.0000 O   0  0  0  0  0  0  0  0  0  0  0  0
  2  1  1  0
  1  3  2  0
  1  4  1  0
  4  5  2  0
  6  4  1  0
  5  7  1  0
  8  5  1  0
  9  6  2  0
 10  7  1  0
  7 11  1  0
 12  8  2  0
  9 12  1  0
 13 10  1  0
 10 14  2  0
 15 11  2  0
 16 11  1  0
 17 13  2  0
 18 13  1  0
 14 19  1  0
 20 14  1  0
 19 15  1  0
 21 15  1  0
 22 16  1  0
 23 16  2  0
 24 18  1  0
 25 22  1  1
 26 25  1  0
 27 25  1  0
 28 26  1  0
 29 26  1  0
 26 30  1  6
 31 27  1  0
 32 28  1  0
 28 33  1  6
 28 31  1  0
 34 29  1  0
 32 35  1  6
 34 32  1  0
M  CHG  2   1   1   2  -1
M  END
> <chembl_id>
CHEMBL2107563

> <chembl_pref_name>
SORNIDIPINE

$$$$

     RDKit          2D

 27 29  0  0  0  0  0  0  0  0999 V2000
    0.2792   -0.0125    0.0000 N   0  0  0  0  0  0  0  0  0  0  0  0
    1.2750    0.4833    0.0000 C   0  0  0  0  0  0  0  0  0  0  0  0
    0.2917   -1.0750    0.0000 C   0  0  0  0  0  0  0  0  0  0  0  0
    0.8625    2.4250    0.0000 C   0  0  0  0  0  0  0  0  0  0  0  0
    1.5542    1.5708    0.0000 C   0  0  0  0  0  0  0  0  0  0  0  0
   -0.2125    2.4250    0.0000 N   0  0  0  0  0  0  0  0  0  0  0  0
   -0.9333    1.6000    0.0000 C   0  0  0  0  0  0  0  0  0  0  0  0
   -0.7083    0.4958    0.0000 C   0  0  0  0  0  0  0  0  0  0  0  0
   -1.9958    1.9583    0.0000 C   0  0  0  0  0  0  0  0  0  0  0  0
    1.1750   -1.6792    0.0000 C   0  0  0  0  0  0  0  0  0  0  0  0
   -1.5125   -0.2292    0.0000 C   0  0  0  0  0  0  0  0  0  0  0  0
   -0.7083   -1.6417    0.0000 O   0  0  0  0  0  0  0  0  0  0  0  0
    1.3042    3.4625    0.0000 O   0  0  0  0  0  0  0  0  0  0  0  0
   -2.8083    1.2000    0.0000 C   0  0  0  0  0  0  0  0  0  0  0  0
    1.1750   -2.7792    0.0000 N   0  0  0  0  0  0  0  0  0  0  0  0
   -2.5500    0.1000    0.0000 C   0  0  0  0  0  0  0  0  0  0  0  0
    2.6042    1.8833    0.0000 C   0  0  0  0  0  0  0  0  0  0  0  0
    2.1000   -0.2792    0.0000 C   0  0  0  0  0  0  0  0  0  0  0  0
   -3.9125    1.5208    0.0000 Cl  0  0  0  0  0  0  0  0  0  0  0  0
    3.9667   -3.2792    0.0000 O   0  0  0  0  0  0  0  0  0  0  0  0
   -1.6625   -3.3875    0.0000 O   0  0  0  0  0  0  0  0  0  0  0  0
    0.2167   -3.3500    0.0000 C   0  0  0  0  0  0  0  0  0  0  0  0
    2.1625   -3.3375    0.0000 C   0  0  0  0  0  0  0  0  0  0  0  0
    3.1917   -2.6917    0.0000 C   0  0  0  0  0  0  0  0  0  0  0  0
   -0.6833   -2.8042    0.0000 C   0  0  0  0  0  0  0  0  0  0  0  0
    3.4125    1.1208    0.0000 C   0  0  0  0  0  0  0  0  0  0  0  0
    3.1625    0.0500    0.0000 C   0  0  0  0  0  0  0  0  0  0  0  0
  2  1  1  0
  3  1  1  0
  4  5  1  0
  5  2  2  0
  6  7  1  0
  7  8  2  0
  8  1  1  0
  9  7  1  0
 10  3  1  0
 11  8  1  0
 12  3  2  0
 13  4  2  0
 14 16  1  0
 15 10  1  0
 16 11  2  0
 17  5  1  0
 18  2  1  0
 19 14  1  0
 20 24  1  0
 21 25  1  0
 22 15  1  0
 23 15  1  0
 24 23  1  0
 25 22  1  0
 26 27  1  0
 27 18  2  0
  4  6  1  0
  9 14  2  0
 17 26  2  0
M  END
> <chembl_id>
CHEMBL2107244

> <chembl_pref_name>
SILTENZEPINE

$$$$

     RDKit          2D

 35 39  0  0  1  0  0  0  0  0999 V2000
   -0.0750   -0.9042    0.0000 C   0  0  0  0  0  0  0  0  0  0  0  0
    2.0792    0.3458    0.0000 C   0  0  0  0  0  0  0  0  0  0  0  0
   -1.1583   -1.5167    0.0000 C   0  0  0  0  0  0  0  0  0  0  0  0
    1.0042   -1.5167    0.0000 C   0  0  0  0  0  0  0  0  0  0  0  0
   -0.0750    0.3458    0.0000 C   0  0  0  0  0  0  0  0  0  0  0  0
    2.0792   -0.9042    0.0000 C   0  0  0  0  0  0  0  0  0  0  0  0
   -1.1583   -2.7667    0.0000 C   0  0  0  0  0  0  0  0  0  0  0  0
    1.0042    0.9708    0.0000 C   0  0  0  0  0  0  0  0  0  0  0  0
    3.3917    0.7250    0.0000 C   0  0  0  0  0  0  0  0  0  0  0  0
   -2.2333   -3.3917    0.0000 C   0  0  0  0  0  0  0  0  0  0  0  0
    1.0042   -2.7667    0.0000 C   0  0  0  0  0  0  0  0  0  0  0  0
   -2.2333   -0.9042    0.0000 C   0  0  0  0  0  0  0  0  0  0  0  0
    3.2542   -1.3625    0.0000 C   0  0  0  0  0  0  0  0  0  0  0  0
   -1.1708    0.9708    0.0000 C   0  0  0  0  0  0  0  0  0  0  0  0
   -0.0750   -3.3917    0.0000 C   0  0  0  0  0  0  0  0  0  0  0  0
   -3.3083   -2.7667    0.0000 C   0  0  0  0  0  0  0  0  0  0  0  0
   -3.3583    2.2375    0.0000 C   0  0  0  0  0  0  0  0  0  0  0  0
    4.1542   -0.3917    0.0000 C   0  0  0  0  0  0  0  0  0  0  0  0
    4.6042    1.8458    0.0000 C   0  0  0  0  0  0  0  0  0  0  0  0
   -4.4458    2.8625    0.0000 N   0  0  0  0  0  0  0  0  0  0  0  0
   -2.2583    0.3458    0.0000 C   0  0  0  0  0  0  0  0  0  0  0  0
   -1.1708    2.2375    0.0000 C   0  0  0  0  0  0  0  0  0  0  0  0
   -2.2583    2.8625    0.0000 C   0  0  0  0  0  0  0  0  0  0  0  0
   -3.3583    0.9708    0.0000 C   0  0  0  0  0  0  0  0  0  0  0  0
   -4.4083   -3.4000    0.0000 O   0  0  0  0  0  0  0  0  0  0  0  0
    5.7292    1.2500    0.0000 C   0  0  0  0  0  0  0  0  0  0  0  0
   -3.3083   -1.5167    0.0000 C   0  0  0  0  0  0  0  0  0  0  0  0
    3.3167    2.2083    0.0000 O   0  0  0  0  0  0  0  0  0  0  0  0
    2.2292    1.5958    0.0000 C   0  0  0  0  0  0  0  0  0  0  0  0
    6.6792   -0.6042    0.0000 O   0  0  0  0  0  0  0  0  0  0  0  0
    5.5542   -0.0125    0.0000 C   0  0  0  0  0  0  0  0  0  0  0  0
   -5.5958    2.3458    0.0000 C   0  0  0  0  0  0  0  0  0  0  0  0
   -4.5625    4.1167    0.0000 C   0  0  0  0  0  0  0  0  0  0  0  0
    1.0042   -0.5667    0.0000 H   0  0  0  0  0  0  0  0  0  0  0  0
    2.0500   -1.9292    0.0000 H   0  0  0  0  0  0  0  0  0  0  0  0
  2  8  1  0
  3  1  2  0
  4  1  1  0
  5  1  1  0
  6  4  1  0
  7  3  1  0
  8  5  1  0
  9  2  1  0
 10  7  2  0
 11  4  1  0
 12  3  1  0
 13  6  1  0
  5 14  1  1
 15 11  1  0
 16 27  1  0
 17 23  1  0
 18 13  1  0
 19  9  1  0
 20 17  1  0
 21 14  2  0
 22 14  1  0
 23 22  2  0
 24 21  1  0
 25 16  2  0
 26 19  2  0
 27 12  1  0
  9 28  1  1
  2 29  1  1
 30 31  1  0
 31 26  1  0
 32 20  1  0
 33 20  1  0
  4 34  1  1
  6 35  1  6
  6  2  1  0
  7 15  1  0
 24 17  2  0
  9 18  1  0
 10 16  1  0
M  END
> <chembl_id>
CHEMBL1908329

> <chembl_pref_name>
LILOPRISTONE

$$$$

     RDKit          2D

 16 17  0  0  0  0  0  0  0  0999 V2000
    0.8250   -1.6542    0.0000 C   0  0  0  0  0  0  0  0  0  0  0  0
    0.8250   -0.3542    0.0000 C   0  0  0  0  0  0  0  0  0  0  0  0
   -0.2708   -2.2917    0.0000 N   0  0  0  0  0  0  0  0  0  0  0  0
   -1.3750   -0.4000    0.0000 N   0  0  0  0  0  0  0  0  0  0  0  0
   -1.3750   -1.6167    0.0000 C   0  0  0  0  0  0  0  0  0  0  0  0
   -0.2708    0.2625    0.0000 C   0  0  0  0  0  0  0  0  0  0  0  0
    2.0042   -2.0542    0.0000 N   0  0  0  0  0  0  0  0  0  0  0  0
    2.0042    0.0333    0.0000 N   0  0  0  0  0  0  0  0  0  0  0  0
    2.7542   -1.0292    0.0000 C   0  0  0  0  0  0  0  0  0  0  0  0
   -2.5208   -2.2500    0.0000 O   0  0  0  0  0  0  0  0  0  0  0  0
   -0.2708    1.5250    0.0000 O   0  0  0  0  0  0  0  0  0  0  0  0
   -0.2708   -3.5875    0.0000 C   0  0  0  0  0  0  0  0  0  0  0  0
   -2.5208    0.2250    0.0000 C   0  0  0  0  0  0  0  0  0  0  0  0
    2.4000    1.2500    0.0000 C   0  0  0  0  0  0  0  0  0  0  0  0
    1.9500    3.3958    0.0000 O   0  0  0  0  0  0  0  0  0  0  0  0
    1.5542    2.1958    0.0000 C   0  0  0  0  0  0  0  0  0  0  0  0
  2  1  2  0
  3  1  1  0
  4  5  1  0
  5  3  1  0
  6  2  1  0
  7  1  1  0
  8  2  1  0
  9  7  2  0
 10  5  2  0
 11  6  2  0
 12  3  1  0
 13  4  1  0
 14  8  1  0
 15 16  1  0
 16 14  1  0
  8  9  1  0
  6  4  1  0
M  END
> <chembl_id>
CHEMBL699

> <chembl_pref_name>
ETOFYLLINE

$$$$

     RDKit          2D

 21 23  0  0  0  0  0  0  0  0999 V2000
   -0.1000    1.2458    0.0000 C   0  0  0  0  0  0  0  0  0  0  0  0
   -1.0625    1.7250    0.0000 N   0  0  0  0  0  0  0  0  0  0  0  0
   -0.2250    0.2625    0.0000 S   0  0  0  0  0  0  0  0  0  0  0  0
    0.7375    1.8208    0.0000 N   0  0  0  0  0  0  0  0  0  0  0  0
    1.6375    1.2750    0.0000 C   0  0  0  0  0  0  0  0  0  0  0  0
   -1.2208    0.0458    0.0000 C   0  0  0  0  0  0  0  0  0  0  0  0
   -1.7333    0.9333    0.0000 C   0  0  0  0  0  0  0  0  0  0  0  0
   -1.7208   -0.8042    0.0000 C   0  0  0  0  0  0  0  0  0  0  0  0
    1.6375    0.2458    0.0000 N   0  0  0  0  0  0  0  0  0  0  0  0
    2.5542    1.8208    0.0000 O   0  0  0  0  0  0  0  0  0  0  0  0
   -2.7750    0.9333    0.0000 C   0  0  0  0  0  0  0  0  0  0  0  0
   -2.7750   -0.8167    0.0000 C   0  0  0  0  0  0  0  0  0  0  0  0
    2.5542   -0.2417    0.0000 C   0  0  0  0  0  0  0  0  0  0  0  0
   -3.2875    0.0833    0.0000 C   0  0  0  0  0  0  0  0  0  0  0  0
   -3.3333   -1.7167    0.0000 O   0  0  0  0  0  0  0  0  0  0  0  0
    3.4667    0.2625    0.0000 C   0  0  0  0  0  0  0  0  0  0  0  0
    2.5667   -1.3375    0.0000 C   0  0  0  0  0  0  0  0  0  0  0  0
   -4.3458   -1.7042    0.0000 C   0  0  0  0  0  0  0  0  0  0  0  0
    4.3417   -0.2792    0.0000 C   0  0  0  0  0  0  0  0  0  0  0  0
    3.4375   -1.7667    0.0000 C   0  0  0  0  0  0  0  0  0  0  0  0
    4.3417   -1.2750    0.0000 C   0  0  0  0  0  0  0  0  0  0  0  0
  2  1  2  0
  3  1  1  0
  4  1  1  0
  5  4  1  0
  6  3  1  0
  7  2  1  0
  8  6  1  0
  9  5  1  0
 10  5  2  0
 11  7  1  0
 12  8  2  0
 13  9  1  0
 14 11  2  0
 15 12  1  0
 16 13  2  0
 17 13  1  0
 18 15  1  0
 19 16  1  0
 20 17  2  0
 21 20  1  0
  6  7  2  0
 12 14  1  0
 19 21  2  0
M  END
> <chembl_id>
CHEMBL128988

> <chembl_pref_name>
FRENTIZOLE

$$$$

     RDKit          2D

 25 28  0  0  0  0  0  0  0  0999 V2000
    3.5417    1.0333    0.0000 N   0  0  0  0  0  0  0  0  0  0  0  0
    1.9292    0.5083    0.0000 C   0  0  0  0  0  0  0  0  0  0  0  0
    2.5292    1.3625    0.0000 C   0  0  0  0  0  0  0  0  0  0  0  0
    2.5417   -0.3167    0.0000 C   0  0  0  0  0  0  0  0  0  0  0  0
   -2.7625    1.3500    0.0000 N   0  0  0  0  0  0  0  0  0  0  0  0
    3.5542    0.0000    0.0000 C   0  0  0  0  0  0  0  0  0  0  0  0
    0.8875    0.4958    0.0000 C   0  0  0  0  0  0  0  0  0  0  0  0
   -3.8208    1.3500    0.0000 C   0  0  0  0  0  0  0  0  0  0  0  0
   -2.2125    0.4375    0.0000 C   0  0  0  0  0  0  0  0  0  0  0  0
   -2.2708    2.2833    0.0000 C   0  0  0  0  0  0  0  0  0  0  0  0
    0.3542    1.3958    0.0000 C   0  0  0  0  0  0  0  0  0  0  0  0
   -4.3458    0.4375    0.0000 C   0  0  0  0  0  0  0  0  0  0  0  0
   -0.6875    1.3958    0.0000 C   0  0  0  0  0  0  0  0  0  0  0  0
   -1.2708    2.2833    0.0000 C   0  0  0  0  0  0  0  0  0  0  0  0
   -1.1833    0.4375    0.0000 C   0  0  0  0  0  0  0  0  0  0  0  0
   -3.7833   -0.4542    0.0000 C   0  0  0  0  0  0  0  0  0  0  0  0
    2.3167   -1.3292    0.0000 C   0  0  0  0  0  0  0  0  0  0  0  0
    4.3417   -0.6625    0.0000 C   0  0  0  0  0  0  0  0  0  0  0  0
   -4.2708   -1.3417    0.0000 C   0  0  0  0  0  0  0  0  0  0  0  0
   -2.7958   -0.4417    0.0000 C   0  0  0  0  0  0  0  0  0  0  0  0
    3.1167   -2.0542    0.0000 C   0  0  0  0  0  0  0  0  0  0  0  0
    4.1167   -1.7167    0.0000 C   0  0  0  0  0  0  0  0  0  0  0  0
   -3.7208   -2.2750    0.0000 C   0  0  0  0  0  0  0  0  0  0  0  0
   -2.1833   -1.3292    0.0000 C   0  0  0  0  0  0  0  0  0  0  0  0
   -2.7083   -2.2750    0.0000 C   0  0  0  0  0  0  0  0  0  0  0  0
  2  3  2  0
  3  1  1  0
  4  6  2  0
  5  9  1  0
  6  1  1  0
  7  2  1  0
  8  5  1  0
  9 15  1  0
 10 14  1  0
 11  7  1  0
 12  8  1  0
 13 11  1  0
 14 13  1  0
 15 13  1  0
 16 12  1  0
 17  4  1  0
 18  6  1  0
 19 16  1  0
 20 16  2  0
 21 22  1  0
 22 18  2  0
 23 19  2  0
 24 20  1  0
 25 24  2  0
  4  2  1  0
 17 21  2  0
 10  5  1  0
 23 25  1  0
M  END
> <chembl_id>
CHEMBL2104887

> <chembl_pref_name>
INDOPINE

$$$$

     RDKit          2D

 42 46  0  0  1  0  0  0  0  0999 V2000
   -1.9083    1.0458    0.0000 C   0  0  0  0  0  0  0  0  0  0  0  0
   -2.9333    0.4375    0.0000 C   0  0  0  0  0  0  0  0  0  0  0  0
   -2.2333    0.4375    0.0000 C   0  0  0  0  0  0  0  0  0  0  0  0
   -2.2500    1.6333    0.0000 C   0  0  0  0  0  0  0  0  0  0  0  0
   -3.2625    1.0083    0.0000 C   0  0  0  0  0  0  0  0  0  0  0  0
   -2.9458    1.6208    0.0000 N   0  0  0  0  0  0  0  0  0  0  0  0
   -3.3708   -1.4375    0.0000 N   0  0  0  0  0  0  0  0  0  0  0  0
    0.8125    0.2208    0.0000 C   0  0  0  0  0  0  0  0  0  0  0  0
   -2.2208   -0.1167    0.0000 C   0  0  0  0  0  0  0  0  0  0  0  0
   -1.2000    1.0458    0.0000 C   0  0  0  0  0  0  0  0  0  0  0  0
   -3.3083   -0.1417    0.0000 C   0  0  0  0  0  0  0  0  0  0  0  0
    1.9625   -0.5042    0.0000 N   0  0  0  0  0  0  0  0  0  0  0  0
   -2.7833   -1.1167    0.0000 C   0  0  0  0  0  0  0  0  0  0  0  0
    0.8125    0.9333    0.0000 O   0  0  0  0  0  0  0  0  0  0  0  0
   -2.7833   -0.4750    0.0000 C   0  0  0  0  0  0  0  0  0  0  0  0
    0.1875   -0.0542    0.0000 O   0  0  0  0  0  0  0  0  0  0  0  0
    1.4542    0.4208    0.0000 C   0  0  0  0  0  0  0  0  0  0  0  0
    0.8125   -0.4917    0.0000 C   0  0  0  0  0  0  0  0  0  0  0  0
   -3.3708   -2.1042    0.0000 O   0  0  0  0  0  0  0  0  0  0  0  0
    2.4667   -0.7792    0.0000 C   0  0  0  0  0  0  0  0  0  0  0  0
   -3.9583   -1.0875    0.0000 O   0  0  0  0  0  0  0  0  0  0  0  0
   -0.8875    1.6833    0.0000 O   0  0  0  0  0  0  0  0  0  0  0  0
    1.4375   -0.8542    0.0000 C   0  0  0  0  0  0  0  0  0  0  0  0
    1.9750    0.1333    0.0000 C   0  0  0  0  0  0  0  0  0  0  0  0
    0.0875    1.0458    0.0000 C   0  0  0  0  0  0  0  0  0  0  0  0
   -0.9000    0.5125    0.0000 O   0  0  0  0  0  0  0  0  0  0  0  0
   -2.9750   -0.7250    0.0000 O   0  0  0  0  0  0  0  0  0  0  0  0
    2.4542   -1.4750    0.0000 C   0  0  0  0  0  0  0  0  0  0  0  0
    3.0292   -0.4792    0.0000 C   0  0  0  0  0  0  0  0  0  0  0  0
   -0.2583    0.4583    0.0000 C   0  0  0  0  0  0  0  0  0  0  0  0
   -0.2083    1.6833    0.0000 C   0  0  0  0  0  0  0  0  0  0  0  0
   -3.9625   -0.1125    0.0000 O   0  0  0  0  0  0  0  0  0  0  0  0
    3.6000   -1.4792    0.0000 C   0  0  0  0  0  0  0  0  0  0  0  0
   -1.9083    2.2375    0.0000 C   0  0  0  0  0  0  0  0  0  0  0  0
   -3.9750    1.0208    0.0000 C   0  0  0  0  0  0  0  0  0  0  0  0
    3.6000   -0.8167    0.0000 C   0  0  0  0  0  0  0  0  0  0  0  0
    3.0375   -1.8125    0.0000 C   0  0  0  0  0  0  0  0  0  0  0  0
   -1.6250   -0.4292    0.0000 C   0  0  0  0  0  0  0  0  0  0  0  0
    4.1542   -1.8250    0.0000 Cl  0  0  0  0  0  0  0  0  0  0  0  0
   -2.1958   -1.4375    0.0000 C   0  0  0  0  0  0  0  0  0  0  0  0
   -1.6250   -1.1167    0.0000 C   0  0  0  0  0  0  0  0  0  0  0  0
   -4.3458   -0.6667    0.0000 C   0  0  0  0  0  0  0  0  0  0  0  0
  2  3  1  0
  3  1  1  0
  4  1  2  0
  5  6  1  0
  6  4  1  0
  7 13  1  0
  8 14  1  0
  3  9  1  1
 10  1  1  0
 11  2  1  0
 12 23  1  0
 13 15  1  0
 14 25  1  0
 15  9  2  0
 16 30  1  0
 17  8  1  0
 18  8  1  0
 19  7  1  0
 20 12  1  0
 21  7  2  0
 22 10  1  0
 23 18  1  0
 24 17  1  0
 25 31  1  0
 26 10  2  0
 27 11  2  0
 28 20  1  0
 29 20  2  0
 30 25  1  0
 31 22  1  0
 32 11  1  0
 33 36  2  0
 34  4  1  0
 35  5  1  0
 36 29  1  0
 37 28  2  0
 38  9  1  0
 39 33  1  0
 40 41  1  0
 41 38  2  0
 42 32  1  0
  2  5  2  0
 13 40  2  0
  8 16  1  0
 24 12  1  0
 37 33  1  0
M  CHG  2   7   1  19  -1
M  END
> <chembl_id>
CHEMBL2106056

> <chembl_pref_name>
CRONIDIPINE

$$$$

     RDKit          2D

 45 50  0  0  1  0  0  0  0  0999 V2000
   -2.4949   -1.5798    0.0000 C   0  0  0  0  0  0  0  0  0  0  0  0
   -2.6697   -2.3783    0.0000 N   0  0  0  0  0  0  0  0  0  0  0  0
   -3.1944   -1.1717    0.0000 C   0  0  0  0  0  0  0  0  0  0  0  0
    0.3672   -1.5798    0.0000 C   0  0  0  0  0  0  0  0  0  0  0  0
   -0.3439   -1.1717    0.0000 C   0  0  0  0  0  0  0  0  0  0  0  0
   -1.7779   -1.1717    0.0000 C   0  0  0  0  0  0  0  0  0  0  0  0
   -1.7779   -0.3381    0.0000 N   0  0  0  0  0  0  0  0  0  0  0  0
   -3.4742   -2.4716    0.0000 C   0  0  0  0  0  0  0  0  0  0  0  0
   -3.8064   -1.7197    0.0000 C   0  0  0  0  0  0  0  0  0  0  0  0
   -0.3439   -0.3381    0.0000 C   0  0  0  0  0  0  0  0  0  0  0  0
    1.0842   -0.3381    0.0000 C   0  0  0  0  0  0  0  0  0  0  0  0
   -1.0609   -1.5798    0.0000 C   0  0  0  0  0  0  0  0  0  0  0  0
    1.0842   -1.1717    0.0000 C   0  0  0  0  0  0  0  0  0  0  0  0
    0.3672   -2.4017    0.0000 C   0  0  0  0  0  0  0  0  0  0  0  0
   -1.0609    0.0700    0.0000 C   0  0  0  0  0  0  0  0  0  0  0  0
    0.3672    0.0700    0.0000 C   0  0  0  0  0  0  0  0  0  0  0  0
   -3.1944   -0.3381    0.0000 C   0  0  0  0  0  0  0  0  0  0  0  0
    1.7896    0.0700    0.0000 O   0  0  0  0  0  0  0  0  0  0  0  0
   -3.9638   -3.1303    0.0000 C   0  0  0  0  0  0  0  0  0  0  0  0
    1.7896    0.8919    0.0000 C   0  0  0  0  0  0  0  0  0  0  0  0
   -4.6284   -1.6322    0.0000 C   0  0  0  0  0  0  0  0  0  0  0  0
   -2.4949    0.0700    0.0000 C   0  0  0  0  0  0  0  0  0  0  0  0
   -0.3439   -2.8039    0.0000 O   0  0  0  0  0  0  0  0  0  0  0  0
    1.0842    1.3057    0.0000 O   0  0  0  0  0  0  0  0  0  0  0  0
   -4.7858   -3.0487    0.0000 C   0  0  0  0  0  0  0  0  0  0  0  0
    2.5066    2.1276    0.0000 O   0  0  0  0  0  0  0  0  0  0  0  0
    2.5066    1.3057    0.0000 C   0  0  0  0  0  0  0  0  0  0  0  0
   -5.1180   -2.2909    0.0000 C   0  0  0  0  0  0  0  0  0  0  0  0
    3.2236    2.5473    0.0000 C   0  0  0  0  0  0  0  0  0  0  0  0
    1.7896   -1.5798    0.0000 O   0  0  0  0  0  0  0  0  0  0  0  0
    1.0842   -2.8039    0.0000 O   0  0  0  0  0  0  0  0  0  0  0  0
    4.6401    3.3693    0.0000 C   0  0  0  0  0  0  0  0  0  0  0  0
    3.9347    2.1276    0.0000 C   0  0  0  0  0  0  0  0  0  0  0  0
    3.2236    3.3693    0.0000 C   0  0  0  0  0  0  0  0  0  0  0  0
    4.6401    2.5473    0.0000 C   0  0  0  0  0  0  0  0  0  0  0  0
    3.9347    3.7890    0.0000 C   0  0  0  0  0  0  0  0  0  0  0  0
   -5.2638   -3.7133    0.0000 O   0  0  0  0  0  0  0  0  0  0  0  0
    5.3571    3.7890    0.0000 O   0  0  0  0  0  0  0  0  0  0  0  0
    2.5066   -1.1717    0.0000 C   0  0  0  0  0  0  0  0  0  0  0  0
    1.0842   -3.6374    0.0000 C   0  0  0  0  0  0  0  0  0  0  0  0
   -6.0799   -3.6258    0.0000 C   0  0  0  0  0  0  0  0  0  0  0  0
    6.0741    3.3693    0.0000 C   0  0  0  0  0  0  0  0  0  0  0  0
   -1.7779   -1.9820    0.0000 H   0  0  0  0  0  0  0  0  0  0  0  0
   -0.3439   -1.9820    0.0000 H   0  0  0  0  0  0  0  0  0  0  0  0
   -0.3439    0.4838    0.0000 H   0  0  0  0  0  0  0  0  0  0  0  0
  2  1  1  0
  3  1  2  0
  4  5  1  0
  5 12  1  0
  6  1  1  0
  7  6  1  0
  8  2  1  0
  9  3  1  0
 10  5  1  0
 11 16  1  0
 12  6  1  0
 13  4  1  0
  4 14  1  1
 15  7  1  0
 16 10  1  0
 17  3  1  0
 11 18  1  1
 19  8  2  0
 20 18  1  0
 21  9  2  0
 22  7  1  0
 23 14  2  0
 24 20  2  0
 25 19  1  0
 26 27  1  0
 27 20  1  0
 28 21  1  0
 29 26  1  0
 13 30  1  6
 31 14  1  0
 32 36  1  0
 33 29  2  0
 34 29  1  0
 35 33  1  0
 36 34  2  0
 37 25  1  0
 38 32  1  0
 39 30  1  0
 40 31  1  0
 41 37  1  0
 42 38  1  0
  6 43  1  1
  5 44  1  6
 10 45  1  6
  9  8  1  0
 17 22  1  0
 15 10  1  0
 28 25  2  0
 13 11  1  0
 35 32  2  0
M  END
> <chembl_id>
CHEMBL3184846

> <chembl_pref_name>
MEFESERPINE

$$$$

     RDKit          2D

 24 23  0  0  0  0  0  0  0  0999 V2000
   -1.4583   -0.7250    0.0000 C   0  0  0  0  0  0  0  0  0  0  0  0
   -0.2250    0.6958    0.0000 C   0  0  0  0  0  0  0  0  0  0  0  0
   -2.0708   -0.3667    0.0000 O   0  0  0  0  0  0  0  0  0  0  0  0
   -1.4583   -1.4292    0.0000 O   0  0  0  0  0  0  0  0  0  0  0  0
   -0.2208    1.4083    0.0000 O   0  0  0  0  0  0  0  0  0  0  0  0
   -0.8375    0.3458    0.0000 O   0  0  0  0  0  0  0  0  0  0  0  0
   -2.0708    0.3458    0.0000 C   0  0  0  0  0  0  0  0  0  0  0  0
   -1.4500    0.6958    0.0000 C   0  0  0  0  0  0  0  0  0  0  0  0
   -3.3083    0.3375    0.0000 O   0  0  0  0  0  0  0  0  0  0  0  0
   -0.8458   -0.3667    0.0000 C   0  0  0  0  0  0  0  0  0  0  0  0
    0.3875    0.3375    0.0000 C   0  0  0  0  0  0  0  0  0  0  0  0
   -2.6875    0.6958    0.0000 C   0  0  0  0  0  0  0  0  0  0  0  0
    1.0042    0.6958    0.0000 C   0  0  0  0  0  0  0  0  0  0  0  0
   -0.2333   -0.7250    0.0000 C   0  0  0  0  0  0  0  0  0  0  0  0
    3.4542    0.6833    0.0000 C   0  0  0  0  0  0  0  0  0  0  0  0
    2.2250   -0.7250    0.0000 C   0  0  0  0  0  0  0  0  0  0  0  0
    1.6125   -0.3667    0.0000 C   0  0  0  0  0  0  0  0  0  0  0  0
    2.8417    0.3333    0.0000 C   0  0  0  0  0  0  0  0  0  0  0  0
    0.3792   -0.3667    0.0000 C   0  0  0  0  0  0  0  0  0  0  0  0
    1.0000   -0.7250    0.0000 C   0  0  0  0  0  0  0  0  0  0  0  0
    1.6167    0.3333    0.0000 C   0  0  0  0  0  0  0  0  0  0  0  0
    2.2292    0.6875    0.0000 C   0  0  0  0  0  0  0  0  0  0  0  0
    4.0667    0.3333    0.0000 C   0  0  0  0  0  0  0  0  0  0  0  0
    2.8375   -0.3667    0.0000 C   0  0  0  0  0  0  0  0  0  0  0  0
  2  6  1  0
  3  1  1  0
  4  1  2  0
  5  2  2  0
  6  8  1  0
  7  3  1  0
  8  7  1  0
  9 12  1  0
 10  1  1  0
 11  2  1  0
 12  7  1  0
 13 11  1  0
 14 10  1  0
 15 18  1  0
 16 17  1  0
 17 20  1  0
 18 22  1  0
 19 14  1  0
 20 19  1  0
 21 13  1  0
 22 21  1  0
 23 15  1  0
 24 16  1  0
M  END
> <chembl_id>
CHEMBL24609

> <chembl_pref_name>
MONOCTANOIN COMPONENT C

$$$$

     RDKit          2D

 25 26  0  0  0  0  0  0  0  0999 V2000
   -1.4333   -2.1417    0.0000 N   0  0  0  0  0  0  0  0  0  0  0  0
   -0.7083   -3.3917    0.0000 C   0  0  0  0  0  0  0  0  0  0  0  0
   -0.7083   -2.5583    0.0000 C   0  0  0  0  0  0  0  0  0  0  0  0
   -1.4292   -3.8083    0.0000 C   0  0  0  0  0  0  0  0  0  0  0  0
   -2.1458   -3.4000    0.0000 C   0  0  0  0  0  0  0  0  0  0  0  0
   -2.1500   -2.5667    0.0000 C   0  0  0  0  0  0  0  0  0  0  0  0
   -1.4250   -4.6333    0.0000 O   0  0  0  0  0  0  0  0  0  0  0  0
   -1.4375   -1.3167    0.0000 O   0  0  0  0  0  0  0  0  0  0  0  0
    0.0083   -3.8042    0.0000 C   0  0  0  0  0  0  0  0  0  0  0  0
    0.0042   -2.1417    0.0000 C   0  0  0  0  0  0  0  0  0  0  0  0
   -2.8667   -3.8083    0.0000 C   0  0  0  0  0  0  0  0  0  0  0  0
   -2.8708   -2.1583    0.0000 C   0  0  0  0  0  0  0  0  0  0  0  0
    0.7167   -2.5542    0.0000 C   0  0  0  0  0  0  0  0  0  0  0  0
    7.1458   -2.1208    0.0000 C   0  0  0  0  0  0  0  0  0  0  0  0
   -3.5792   -3.3958    0.0000 C   0  0  0  0  0  0  0  0  0  0  0  0
    6.4333   -2.5333    0.0000 C   0  0  0  0  0  0  0  0  0  0  0  0
    3.5750   -2.5458    0.0000 C   0  0  0  0  0  0  0  0  0  0  0  0
    4.2875   -2.1292    0.0000 C   0  0  0  0  0  0  0  0  0  0  0  0
    5.0042   -2.5375    0.0000 C   0  0  0  0  0  0  0  0  0  0  0  0
    5.7167   -2.1250    0.0000 C   0  0  0  0  0  0  0  0  0  0  0  0
    1.4333   -2.1375    0.0000 C   0  0  0  0  0  0  0  0  0  0  0  0
    2.1458   -2.5500    0.0000 C   0  0  0  0  0  0  0  0  0  0  0  0
    2.8625   -2.1333    0.0000 C   0  0  0  0  0  0  0  0  0  0  0  0
   -3.5792   -2.5708    0.0000 C   0  0  0  0  0  0  0  0  0  0  0  0
    7.8625   -2.5292    0.0000 C   0  0  0  0  0  0  0  0  0  0  0  0
  2  3  2  0
  3  1  1  0
  4  2  1  0
  5  6  1  0
  6  1  1  0
  7  4  2  0
  8  1  1  0
  9  2  1  0
 10  3  1  0
 11  5  2  0
 12  6  2  0
 13 10  1  0
 14 16  1  0
 15 11  1  0
 16 20  1  0
 17 23  1  0
 18 17  1  0
 19 18  1  0
 20 19  1  0
 21 13  1  0
 22 21  1  0
 23 22  1  0
 24 12  1  0
 25 14  1  0
  4  5  1  0
 15 24  2  0
M  END
> <chembl_id>
CHEMBL1213284

> <chembl_pref_name>
COMPOUND A

$$$$

     RDKit          2D

 12  9  0  0  0  0  0  0  0  0999 V2000
    9.5542   -0.9417    0.0000 Na  0  0  0  0  0 15  0  0  0  0  0  0
    7.8042   -0.5167    0.0000 S   0  0  0  0  0  0  0  0  0  0  0  0
    8.5167   -0.9292    0.0000 O   0  0  0  0  0  0  0  0  0  0  0  0
    7.0917   -0.1042    0.0000 C   0  0  0  0  0  0  0  0  0  0  0  0
    7.2167   -1.1000    0.0000 O   0  0  0  0  0  0  0  0  0  0  0  0
    8.3917    0.0708    0.0000 O   0  0  0  0  0  0  0  0  0  0  0  0
    5.6667   -0.1042    0.0000 S   0  0  0  0  0  0  0  0  0  0  0  0
    6.3792   -0.5167    0.0000 C   0  0  0  0  0  0  0  0  0  0  0  0
   -0.6958   -0.9417    0.0000 C   0  0  0  0  0  0  0  0  0  0  0  0
    1.1125   -0.9417    0.0000 O   0  0  0  0  0  0  0  0  0  0  0  0
   -1.5958   -1.4625    0.0000 C   0  0  0  0  0  0  0  0  0  0  0  0
    0.2125   -1.4625    0.0000 C   0  0  0  0  0  0  0  0  0  0  0  0
  3  2  1  0
  4  2  1  0
  5  2  2  0
  6  2  2  0
  7  8  1  0
  8  4  1  0
 10 12  2  0
 11  9  2  0
 12  9  1  0
M  CHG  2   1   1   3  -1
M  END
> <chembl_id>
CHEMBL61040

> <chembl_pref_name>
None

$$$$

     RDKit          2D

 45 49  0  0  0  0  0  0  0  0999 V2000
   -2.3208    0.9208    0.0000 P   0  0  0  0  0  0  0  0  0  0  0  0
   -1.7833    1.3333    0.0000 C   0  0  0  0  0  0  0  0  0  0  0  0
   -0.4708    1.3250    0.0000 C   0  0  0  0  0  0  0  0  0  0  0  0
   -1.1708    0.9458    0.0000 C   0  0  0  0  0  0  0  0  0  0  0  0
   -1.8083    2.0708    0.0000 C   0  0  0  0  0  0  0  0  0  0  0  0
   -0.4708    2.0875    0.0000 C   0  0  0  0  0  0  0  0  0  0  0  0
   -1.1583    2.4625    0.0000 N   0  0  0  0  0  0  0  0  0  0  0  0
   -0.9625   -1.7667    0.0000 N   0  0  0  0  0  0  0  0  0  0  0  0
   -1.4208    0.1333    0.0000 C   0  0  0  0  0  0  0  0  0  0  0  0
   -2.7125    1.4958    0.0000 O   0  0  0  0  0  0  0  0  0  0  0  0
   -2.6708    0.3458    0.0000 O   0  0  0  0  0  0  0  0  0  0  0  0
    0.2792    1.0000    0.0000 C   0  0  0  0  0  0  0  0  0  0  0  0
   -1.3625   -1.1542    0.0000 C   0  0  0  0  0  0  0  0  0  0  0  0
   -1.0208   -0.4625    0.0000 C   0  0  0  0  0  0  0  0  0  0  0  0
   -1.7833    0.4375    0.0000 O   0  0  0  0  0  0  0  0  0  0  0  0
    2.5042    0.3333    0.0000 N   0  0  0  0  0  0  0  0  0  0  0  0
   -3.7875    0.8833    0.0000 C   0  0  0  0  0  0  0  0  0  0  0  0
   -0.2458   -1.7167    0.0000 O   0  0  0  0  0  0  0  0  0  0  0  0
   -1.2875   -2.4125    0.0000 O   0  0  0  0  0  0  0  0  0  0  0  0
    2.6667   -0.3542    0.0000 C   0  0  0  0  0  0  0  0  0  0  0  0
    0.3917    0.2833    0.0000 O   0  0  0  0  0  0  0  0  0  0  0  0
   -3.4208    1.4833    0.0000 C   0  0  0  0  0  0  0  0  0  0  0  0
   -3.3708    0.3083    0.0000 C   0  0  0  0  0  0  0  0  0  0  0  0
    3.1000    0.7833    0.0000 C   0  0  0  0  0  0  0  0  0  0  0  0
    0.9000    1.5208    0.0000 O   0  0  0  0  0  0  0  0  0  0  0  0
   -2.4458    2.4125    0.0000 C   0  0  0  0  0  0  0  0  0  0  0  0
    0.1542    2.4583    0.0000 C   0  0  0  0  0  0  0  0  0  0  0  0
    2.0792   -0.7417    0.0000 C   0  0  0  0  0  0  0  0  0  0  0  0
   -2.1708    0.0625    0.0000 C   0  0  0  0  0  0  0  0  0  0  0  0
    1.7417    0.5458    0.0000 C   0  0  0  0  0  0  0  0  0  0  0  0
    1.6500    1.2708    0.0000 C   0  0  0  0  0  0  0  0  0  0  0  0
   -2.0875   -1.2042    0.0000 C   0  0  0  0  0  0  0  0  0  0  0  0
   -2.4958   -0.6167    0.0000 C   0  0  0  0  0  0  0  0  0  0  0  0
   -4.3208    0.3958    0.0000 C   0  0  0  0  0  0  0  0  0  0  0  0
   -4.3458    1.3458    0.0000 C   0  0  0  0  0  0  0  0  0  0  0  0
    3.0500    1.5000    0.0000 C   0  0  0  0  0  0  0  0  0  0  0  0
    3.7625    0.4625    0.0000 C   0  0  0  0  0  0  0  0  0  0  0  0
    2.1542   -1.4417    0.0000 C   0  0  0  0  0  0  0  0  0  0  0  0
    1.4417   -0.4417    0.0000 C   0  0  0  0  0  0  0  0  0  0  0  0
    4.3417    0.8583    0.0000 C   0  0  0  0  0  0  0  0  0  0  0  0
    3.6375    1.8958    0.0000 C   0  0  0  0  0  0  0  0  0  0  0  0
    1.6000   -1.8542    0.0000 C   0  0  0  0  0  0  0  0  0  0  0  0
    0.8625   -0.8625    0.0000 C   0  0  0  0  0  0  0  0  0  0  0  0
    4.2917    1.5750    0.0000 C   0  0  0  0  0  0  0  0  0  0  0  0
    0.9375   -1.5667    0.0000 C   0  0  0  0  0  0  0  0  0  0  0  0
  2  1  1  0
  3  4  1  0
  4  2  1  0
  5  2  2  0
  6  7  1  0
  7  5  1  0
  8 13  1  0
  9  4  1  0
 10  1  1  0
 11  1  1  0
 12  3  1  0
 13 14  2  0
 14  9  1  0
 15  1  2  0
 16 30  1  0
 17 23  1  0
 18  8  1  0
 19  8  2  0
 20 16  1  0
 21 12  2  0
 22 10  1  0
 23 11  1  0
 24 16  1  0
 25 12  1  0
 26  5  1  0
 27  6  1  0
 28 20  1  0
 29  9  2  0
 30 31  1  0
 31 25  1  0
 32 33  2  0
 33 29  1  0
 34 17  1  0
 35 17  1  0
 36 24  1  0
 37 24  2  0
 38 28  1  0
 39 28  2  0
 40 37  1  0
 41 36  2  0
 42 38  2  0
 43 39  1  0
 44 40  2  0
 45 43  2  0
 22 17  1  0
  3  6  2  0
 13 32  1  0
 41 44  1  0
 42 45  1  0
M  CHG  2   8   1  18  -1
M  END
> <chembl_id>
CHEMBL2074922

> <chembl_pref_name>
EFONIDIPINE

$$$$

     RDKit          2D

 15 14  0  0  0  0  0  0  0  0999 V2000
   -0.2250    0.6958    0.0000 C   0  0  0  0  0  0  0  0  0  0  0  0
   -0.2208    1.4083    0.0000 O   0  0  0  0  0  0  0  0  0  0  0  0
   -0.8375    0.3458    0.0000 O   0  0  0  0  0  0  0  0  0  0  0  0
   -2.0708    0.3458    0.0000 C   0  0  0  0  0  0  0  0  0  0  0  0
   -1.4500    0.6958    0.0000 C   0  0  0  0  0  0  0  0  0  0  0  0
   -2.0708   -0.3667    0.0000 O   0  0  0  0  0  0  0  0  0  0  0  0
   -3.3083    0.3375    0.0000 O   0  0  0  0  0  0  0  0  0  0  0  0
    0.3875    0.3375    0.0000 C   0  0  0  0  0  0  0  0  0  0  0  0
   -2.6875    0.6958    0.0000 C   0  0  0  0  0  0  0  0  0  0  0  0
    1.0042    0.6958    0.0000 C   0  0  0  0  0  0  0  0  0  0  0  0
    3.4542    0.6833    0.0000 C   0  0  0  0  0  0  0  0  0  0  0  0
    2.8417    0.3333    0.0000 C   0  0  0  0  0  0  0  0  0  0  0  0
    1.6167    0.3333    0.0000 C   0  0  0  0  0  0  0  0  0  0  0  0
    2.2292    0.6875    0.0000 C   0  0  0  0  0  0  0  0  0  0  0  0
    4.0667    0.3333    0.0000 C   0  0  0  0  0  0  0  0  0  0  0  0
  2  1  2  0
  3  1  1  0
  4  5  1  0
  5  3  1  0
  6  4  1  0
  7  9  1  0
  8  1  1  0
  9  4  1  0
 10  8  1  0
 11 12  1  0
 12 14  1  0
 13 10  1  0
 14 13  1  0
 15 11  1  0
M  END
> <chembl_id>
CHEMBL1570482

> <chembl_pref_name>
MONOCTANOIN COMPONENT A

$$$$

     RDKit          2D

 20 21  0  0  0  0  0  0  0  0999 V2000
    1.0875    1.1875    0.0000 O   0  0  0  0  0  0  0  0  0  0  0  0
    2.1792    0.5625    0.0000 C   0  0  0  0  0  0  0  0  0  0  0  0
    0.0042    0.5625    0.0000 C   0  0  0  0  0  0  0  0  0  0  0  0
    3.2667    1.2083    0.0000 C   0  0  0  0  0  0  0  0  0  0  0  0
    0.0042   -0.7000    0.0000 C   0  0  0  0  0  0  0  0  0  0  0  0
   -1.0833    1.1875    0.0000 C   0  0  0  0  0  0  0  0  0  0  0  0
   -3.2583    1.1708    0.0000 N   0  0  0  0  0  0  0  0  0  0  0  0
    3.2667    2.4833    0.0000 O   0  0  0  0  0  0  0  0  0  0  0  0
    2.1792   -0.6792    0.0000 C   0  0  0  0  0  0  0  0  0  0  0  0
   -2.1708    0.5458    0.0000 C   0  0  0  0  0  0  0  0  0  0  0  0
    4.3417    0.5833    0.0000 C   0  0  0  0  0  0  0  0  0  0  0  0
   -1.0833   -1.3167    0.0000 C   0  0  0  0  0  0  0  0  0  0  0  0
    1.0375   -1.2375    0.0000 C   0  0  0  0  0  0  0  0  0  0  0  0
   -4.3458    0.5458    0.0000 C   0  0  0  0  0  0  0  0  0  0  0  0
    2.1792    3.1083    0.0000 C   0  0  0  0  0  0  0  0  0  0  0  0
    3.2792   -1.3042    0.0000 C   0  0  0  0  0  0  0  0  0  0  0  0
    1.0375   -2.4542    0.0000 C   0  0  0  0  0  0  0  0  0  0  0  0
    4.3375   -0.6625    0.0000 C   0  0  0  0  0  0  0  0  0  0  0  0
   -1.0958   -2.5000    0.0000 C   0  0  0  0  0  0  0  0  0  0  0  0
    0.0167   -3.1000    0.0000 C   0  0  0  0  0  0  0  0  0  0  0  0
  2  1  1  0
  3  1  1  0
  4  2  1  0
  5  3  1  0
  6  3  1  0
  7 10  1  0
  8  4  1  0
  9  2  2  0
 10  6  1  0
 11  4  2  0
 12  5  2  0
 13  5  1  0
 14  7  1  0
 15  8  1  0
 16  9  1  0
 17 13  2  0
 18 16  2  0
 19 12  1  0
 20 17  1  0
 11 18  1  0
 19 20  2  0
M  END
> <chembl_id>
CHEMBL295467

> <chembl_pref_name>
NISOXETINE

$$$$

     RDKit          2D

 25 27  0  0  0  0  0  0  0  0999 V2000
    2.9194    1.3917    0.0000 C   0  0  0  0  0  0  0  0  0  0  0  0
    2.9182    0.5643    0.0000 C   0  0  0  0  0  0  0  0  0  0  0  0
    3.6331    0.1515    0.0000 C   0  0  0  0  0  0  0  0  0  0  0  0
    4.3495    0.5648    0.0000 C   0  0  0  0  0  0  0  0  0  0  0  0
    4.3466    1.3953    0.0000 C   0  0  0  0  0  0  0  0  0  0  0  0
    3.6313    1.8045    0.0000 C   0  0  0  0  0  0  0  0  0  0  0  0
    5.0646    0.1534    0.0000 C   0  0  0  0  0  0  0  0  0  0  0  0
    5.0659   -0.6716    0.0000 N   0  0  0  0  0  0  0  0  0  0  0  0
    5.7810   -1.0829    0.0000 O   0  0  0  0  0  0  0  0  0  0  0  0
    5.7784    0.5671    0.0000 C   0  0  0  0  0  0  0  0  0  0  0  0
    6.4902    0.1552    0.0000 C   0  0  0  0  0  0  0  0  0  0  0  0
    6.4825    1.8053    0.0000 C   0  0  0  0  0  0  0  0  0  0  0  0
    5.7722    1.3900    0.0000 C   0  0  0  0  0  0  0  0  0  0  0  0
    7.2027    1.3941    0.0000 C   0  0  0  0  0  0  0  0  0  0  0  0
    7.2018    0.5721    0.0000 C   0  0  0  0  0  0  0  0  0  0  0  0
    7.9833    0.3172    0.0000 N   0  0  0  0  0  0  0  0  0  0  0  0
    8.4672    0.9818    0.0000 C   0  0  0  0  0  0  0  0  0  0  0  0
    7.9847    1.6472    0.0000 N   0  0  0  0  0  0  0  0  0  0  0  0
    9.2922    0.9810    0.0000 N   0  0  0  0  0  0  0  0  0  0  0  0
    8.2375   -0.4676    0.0000 S   0  0  0  0  0  0  0  0  0  0  0  0
    8.4458   -1.2625    0.0000 C   0  0  0  0  0  0  0  0  0  0  0  0
    9.0292   -0.2359    0.0000 O   0  0  0  0  0  0  0  0  0  0  0  0
    7.4467   -0.7027    0.0000 O   0  0  0  0  0  0  0  0  0  0  0  0
    7.8593   -1.8427    0.0000 C   0  0  0  0  0  0  0  0  0  0  0  0
    9.2416   -1.4803    0.0000 C   0  0  0  0  0  0  0  0  0  0  0  0
 14 12  1  0
  6  1  1  0
 12 13  2  0
 13 10  1  0
 14 15  2  0
  1  2  2  0
  4  7  1  0
  3  4  2  0
  7  8  2  0
 15 16  1  0
 16 17  1  0
 17 18  2  0
 18 14  1  0
  8  9  1  0
 17 19  1  0
  4  5  1  0
 16 20  1  0
  7 10  1  0
 20 21  1  0
  2  3  1  0
 20 22  2  0
 10 11  2  0
 20 23  2  0
 11 15  1  0
 21 24  1  0
  5  6  2  0
 21 25  1  0
M  END
> <chembl_id>
CHEMBL121883

> <chembl_pref_name>
ZINVIROXIME

$$$$

     RDKit          2D

 33 35  0  0  0  0  0  0  0  0999 V2000
    4.8126   -0.2062    0.0000 O   0  0  0  0  0  0  0  0  0  0  0  0
    5.5270    0.2063    0.0000 C   0  0  0  0  0  0  0  0  0  0  0  0
    5.5270    1.0313    0.0000 O   0  0  0  0  0  0  0  0  0  0  0  0
    6.2415   -0.2062    0.0000 C   0  0  0  0  0  0  0  0  0  0  0  0
    6.9560    0.2062    0.0000 C   0  0  0  0  0  0  0  0  0  0  0  0
    7.6705   -0.2062    0.0000 C   0  0  0  0  0  0  0  0  0  0  0  0
    8.3849    0.2062    0.0000 O   0  0  0  0  0  0  0  0  0  0  0  0
    7.6705   -1.0313    0.0000 O   0  0  0  0  0  0  0  0  0  0  0  0
    1.2988   -1.2062    0.0000 C   0  0  0  0  0  0  0  0  0  0  0  0
    0.4918   -1.0347    0.0000 N   0  0  0  0  0  0  0  0  0  0  0  0
    1.5537   -1.9908    0.0000 C   0  0  0  0  0  0  0  0  0  0  0  0
    1.0017   -2.6039    0.0000 N   0  0  0  0  0  0  0  0  0  0  0  0
   -0.0602   -1.6478    0.0000 C   0  0  0  0  0  0  0  0  0  0  0  0
    0.1947   -2.4324    0.0000 C   0  0  0  0  0  0  0  0  0  0  0  0
    0.1659   -3.2569    0.0000 C   0  0  0  0  0  0  0  0  0  0  0  0
   -0.6222   -2.5472    0.0000 C   0  0  0  0  0  0  0  0  0  0  0  0
    0.2369   -0.2500    0.0000 C   0  0  0  0  0  0  0  0  0  0  0  0
   -0.5477    0.0049    0.0000 C   0  0  0  0  0  0  0  0  0  0  0  0
   -1.9767    0.0049    0.0000 C   0  0  0  0  0  0  0  0  0  0  0  0
   -1.2622   -0.4076    0.0000 C   0  0  0  0  0  0  0  0  0  0  0  0
   -2.6911   -0.4076    0.0000 Cl  0  0  0  0  0  0  0  0  0  0  0  0
   -1.9767    0.8299    0.0000 C   0  0  0  0  0  0  0  0  0  0  0  0
   -1.2622    1.2424    0.0000 C   0  0  0  0  0  0  0  0  0  0  0  0
   -0.5477    0.8299    0.0000 C   0  0  0  0  0  0  0  0  0  0  0  0
    0.2369    1.0848    0.0000 C   0  0  0  0  0  0  0  0  0  0  0  0
    0.7218    0.4174    0.0000 C   0  0  0  0  0  0  0  0  0  0  0  0
    1.5537    2.8256    0.0000 C   0  0  0  0  0  0  0  0  0  0  0  0
    1.0017    3.4387    0.0000 C   0  0  0  0  0  0  0  0  0  0  0  0
    0.1947    3.2672    0.0000 C   0  0  0  0  0  0  0  0  0  0  0  0
   -0.0602    2.4826    0.0000 C   0  0  0  0  0  0  0  0  0  0  0  0
    0.4918    1.8695    0.0000 C   0  0  0  0  0  0  0  0  0  0  0  0
    1.2988    2.0410    0.0000 C   0  0  0  0  0  0  0  0  0  0  0  0
    1.2567   -3.3885    0.0000 C   0  0  0  0  0  0  0  0  0  0  0  0
  1  2  1  0
  2  3  2  0
  2  4  1  0
  4  5  1  0
  5  6  1  0
  6  7  2  0
  6  8  1  0
  9 10  1  0
  9 11  1  0
 12 11  1  0
 12 33  1  0
 13 10  1  0
 13 14  1  0
 14 16  1  0
 14 12  1  0
 15 14  1  0
 17 18  1  0
 17 10  1  1
 18 24  2  0
 19 20  2  0
 19 22  1  0
 20 18  1  0
 21 19  1  0
 22 23  2  0
 24 23  1  0
 24 25  1  0
 25 26  1  0
 25 31  1  6
 26 17  1  0
 27 28  1  0
 28 29  2  0
 30 29  1  0
 31 30  2  0
 31 32  1  0
 32 27  2  0
M  END
> <chembl_id>
CHEMBL3039534

> <chembl_pref_name>
ZICRONAPINE SUCCINATE

$$$$

     RDKit          2D

 12 12  0  0  0  0  0  0  0  0999 V2000
    2.5500   -0.6042    0.0000 C   0  0  0  0  0  0  0  0  0  0  0  0
    1.8375    0.6333    0.0000 N   0  0  0  0  0  0  0  0  0  0  0  0
    3.9917   -0.6042    0.0000 O   0  0  0  0  0  0  0  0  0  0  0  0
    0.4125    0.6333    0.0000 C   0  0  0  0  0  0  0  0  0  0  0  0
   -2.4583    0.6333    0.0000 C   0  0  0  0  0  0  0  0  0  0  0  0
   -0.2958    1.8458    0.0000 C   0  0  0  0  0  0  0  0  0  0  0  0
   -0.3208   -0.6250    0.0000 C   0  0  0  0  0  0  0  0  0  0  0  0
   -1.7458   -0.6250    0.0000 C   0  0  0  0  0  0  0  0  0  0  0  0
   -1.7458    1.8458    0.0000 C   0  0  0  0  0  0  0  0  0  0  0  0
   -3.8833    0.6333    0.0000 O   0  0  0  0  0  0  0  0  0  0  0  0
    1.8375   -1.8417    0.0000 C   0  0  0  0  0  0  0  0  0  0  0  0
    0.3917   -1.8417    0.0000 C   0  0  0  0  0  0  0  0  0  0  0  0
  2  1  1  0
  3  1  2  0
  4  2  1  0
  5  8  2  0
  6  4  1  0
  7  4  2  0
  8  7  1  0
  9  6  2  0
 10  5  1  0
 11  1  1  0
 12 11  1  0
  9  5  1  0
M  END
> <chembl_id>
CHEMBL440135

> <chembl_pref_name>
PARAPROPAMOL

$$$$

     RDKit          2D

 30 33  0  0  0  0  0  0  0  0999 V2000
    4.6017  -12.1261    0.0000 O   0  0  0  0  0  0  0  0  0  0  0  0
    3.4020  -12.0971    0.0000 S   0  0  0  0  0  0  0  0  0  0  0  0
    4.0271  -11.0728    0.0000 O   0  0  0  0  0  0  0  0  0  0  0  0
    2.6837  -10.7794    0.0000 N   0  0  0  0  0  0  0  0  0  0  0  0
    1.2990   -0.7500    0.0000 C   0  0  0  0  0  0  0  0  0  0  0  0
    1.2990    0.7500    0.0000 C   0  0  0  0  0  0  0  0  0  0  0  0
    0.0000    1.5000    0.0000 C   0  0  0  0  0  0  0  0  0  0  0  0
   -1.2990    0.7500    0.0000 C   0  0  0  0  0  0  0  0  0  0  0  0
   -1.2990   -0.7500    0.0000 C   0  0  0  0  0  0  0  0  0  0  0  0
    0.0000   -1.5000    0.0000 C   0  0  0  0  0  0  0  0  0  0  0  0
    2.3383    1.3500    0.0000 O   0  0  0  0  0  0  0  0  0  0  0  0
    0.0031   -3.0008    0.0000 C   0  0  0  0  0  0  0  0  0  0  0  0
    1.3039   -3.7494    0.0000 C   0  0  0  0  0  0  0  0  0  0  0  0
    1.4469   -5.2297    0.0000 S   0  0  0  0  0  0  0  0  0  0  0  0
    2.9152   -5.5365    0.0000 C   0  0  0  0  0  0  0  0  0  0  0  0
    3.6607   -4.2349    0.0000 C   0  0  0  0  0  0  0  0  0  0  0  0
    2.6532   -3.1236    0.0000 C   0  0  0  0  0  0  0  0  0  0  0  0
   -1.0351   -3.6026    0.0000 O   0  0  0  0  0  0  0  0  0  0  0  0
    3.5304   -6.9054    0.0000 C   0  0  0  0  0  0  0  0  0  0  0  0
    2.7488   -8.1798    0.0000 C   0  0  0  0  0  0  0  0  0  0  0  0
    3.4649   -9.4979    0.0000 C   0  0  0  0  0  0  0  0  0  0  0  0
    4.9644   -9.5368    0.0000 C   0  0  0  0  0  0  0  0  0  0  0  0
    5.7478   -8.2576    0.0000 C   0  0  0  0  0  0  0  0  0  0  0  0
    5.0317   -6.9396    0.0000 C   0  0  0  0  0  0  0  0  0  0  0  0
    2.6208  -13.3786    0.0000 C   0  0  0  0  0  0  0  0  0  0  0  0
    3.3396  -14.6952    0.0000 C   0  0  0  0  0  0  0  0  0  0  0  0
    2.5588  -15.9759    0.0000 C   0  0  0  0  0  0  0  0  0  0  0  0
    1.0592  -15.9401    0.0000 C   0  0  0  0  0  0  0  0  0  0  0  0
    0.3405  -14.6236    0.0000 C   0  0  0  0  0  0  0  0  0  0  0  0
    1.1212  -13.3428    0.0000 C   0  0  0  0  0  0  0  0  0  0  0  0
  2  1  2  0
  3  2  2  0
  5  6  2  0
  6  7  1  0
  7  8  2  0
  8  9  1  0
  9 10  2  0
 10  5  1  0
  6 11  1  0
 10 12  1  0
 12 13  1  0
 13 14  1  0
 14 15  1  0
 15 16  2  0
 16 17  1  0
 17 13  2  0
 12 18  2  0
 19 20  2  0
 20 21  1  0
 21 22  2  0
 22 23  1  0
 23 24  2  0
 24 19  1  0
 15 19  1  0
 21  4  1  0
  4  2  1  0
  2 25  1  0
 25 26  2  0
 26 27  1  0
 27 28  2  0
 28 29  1  0
 29 30  2  0
 30 25  1  0
M  END
> <chembl_id>
CHEMBL3629438

> <chembl_pref_name>
None

$$$$

     RDKit          2D

 33 36  0  0  0  0  0  0  0  0999 V2000
    2.9943  -29.5005    0.0000 C   0  0  0  0  0  0  0  0  0  0  0  0
    2.9932  -30.3278    0.0000 C   0  0  0  0  0  0  0  0  0  0  0  0
    3.7080  -30.7407    0.0000 C   0  0  0  0  0  0  0  0  0  0  0  0
    3.7062  -29.0877    0.0000 C   0  0  0  0  0  0  0  0  0  0  0  0
    4.4216  -29.4968    0.0000 C   0  0  0  0  0  0  0  0  0  0  0  0
    4.4250  -30.3299    0.0000 C   0  0  0  0  0  0  0  0  0  0  0  0
    5.1442  -30.7412    0.0000 N   0  0  0  0  0  0  0  0  0  0  0  0
    5.8645  -30.3240    0.0000 C   0  0  0  0  0  0  0  0  0  0  0  0
    5.8611  -29.4909    0.0000 N   0  0  0  0  0  0  0  0  0  0  0  0
    5.1373  -29.0750    0.0000 C   0  0  0  0  0  0  0  0  0  0  0  0
    5.1328  -28.2501    0.0000 O   0  0  0  0  0  0  0  0  0  0  0  0
    6.5732  -29.0766    0.0000 C   0  0  0  0  0  0  0  0  0  0  0  0
    7.2893  -29.4886    0.0000 C   0  0  0  0  0  0  0  0  0  0  0  0
    8.0020  -29.0746    0.0000 C   0  0  0  0  0  0  0  0  0  0  0  0
    7.9999  -28.2487    0.0000 C   0  0  0  0  0  0  0  0  0  0  0  0
    7.2791  -27.8386    0.0000 C   0  0  0  0  0  0  0  0  0  0  0  0
    6.5694  -28.2550    0.0000 C   0  0  0  0  0  0  0  0  0  0  0  0
    6.5801  -30.7346    0.0000 S   0  0  0  0  0  0  0  0  0  0  0  0
    6.5824  -31.5595    0.0000 C   0  0  0  0  0  0  0  0  0  0  0  0
    5.9160  -32.0475    0.0000 S   0  0  0  0  0  0  0  0  0  0  0  0
    6.1731  -32.8314    0.0000 C   0  0  0  0  0  0  0  0  0  0  0  0
    6.9981  -32.8291    0.0000 N   0  0  0  0  0  0  0  0  0  0  0  0
    7.2508  -32.0438    0.0000 C   0  0  0  0  0  0  0  0  0  0  0  0
    5.6900  -33.5001    0.0000 N   0  0  0  0  0  0  0  0  0  0  0  0
    8.0376  -31.7872    0.0000 C   0  0  0  0  0  0  0  0  0  0  0  0
    8.6518  -32.3380    0.0000 O   0  0  0  0  0  0  0  0  0  0  0  0
    8.2074  -30.9799    0.0000 O   0  0  0  0  0  0  0  0  0  0  0  0
    8.4820  -33.1453    0.0000 C   0  0  0  0  0  0  0  0  0  0  0  0
    9.0963  -33.6960    0.0000 C   0  0  0  0  0  0  0  0  0  0  0  0
    2.2797  -29.0881    0.0000 O   0  0  0  0  0  0  0  0  0  0  0  0
    2.2796  -28.2631    0.0000 C   0  0  0  0  0  0  0  0  0  0  0  0
    2.2784  -30.7398    0.0000 O   0  0  0  0  0  0  0  0  0  0  0  0
    1.5642  -30.3267    0.0000 C   0  0  0  0  0  0  0  0  0  0  0  0
  1  2  2  0
  2  3  1  0
  3  6  2  0
  5  4  2  0
  4  1  1  0
  5  6  1  0
  5 10  1  0
  6  7  1  0
  7  8  2  0
  8  9  1  0
  9 10  1  0
 10 11  2  0
 12 13  2  0
 13 14  1  0
 14 15  2  0
 15 16  1  0
 16 17  2  0
 17 12  1  0
  9 12  1  0
  8 18  1  0
 18 19  1  0
 19 20  1  0
 20 21  1  0
 21 22  2  0
 22 23  1  0
 23 19  2  0
 21 24  1  0
 25 26  1  0
 25 27  2  0
 23 25  1  0
 26 28  1  0
 28 29  1  0
  1 30  1  0
 30 31  1  0
  2 32  1  0
 32 33  1  0
M  END
> <chembl_id>
CHEMBL2376081

> <chembl_pref_name>
None

$$$$

     RDKit          2D

 32 37  0  0  0  0  0  0  0  0999 V2000
   -1.2964    1.4973    0.0000 C   0  0  0  0  0  0  0  0  0  0  0  0
   -2.6111    0.7486    0.0000 N   0  0  0  0  0  0  0  0  0  0  0  0
   -2.6111   -0.7486    0.0000 C   0  0  0  0  0  0  0  0  0  0  0  0
   -1.2964   -1.4973    0.0000 C   0  0  0  0  0  0  0  0  0  0  0  0
    0.0000   -0.7486    0.0000 C   0  0  0  0  0  0  0  0  0  0  0  0
    1.2964   -1.4973    0.0000 C   0  0  0  0  0  0  0  0  0  0  0  0
    2.5929   -0.7486    0.0000 C   0  0  0  0  0  0  0  0  0  0  0  0
    2.5929    0.7486    0.0000 C   0  0  0  0  0  0  0  0  0  0  0  0
    1.2964    1.4973    0.0000 C   0  0  0  0  0  0  0  0  0  0  0  0
    0.0000    0.7486    0.0000 C   0  0  0  0  0  0  0  0  0  0  0  0
   -1.2928    2.6973    0.0000 O   0  0  0  0  0  0  0  0  0  0  0  0
    3.8942   -1.4964    0.0000 O   0  0  0  0  0  0  0  0  0  0  0  0
    7.7858    0.7649    0.0000 N   0  0  0  0  0  0  0  0  0  0  0  0
    7.7910   -0.7351    0.0000 C   0  0  0  0  0  0  0  0  0  0  0  0
    6.4946   -1.4896    0.0000 C   0  0  0  0  0  0  0  0  0  0  0  0
    5.1929   -0.7441    0.0000 C   0  0  0  0  0  0  0  0  0  0  0  0
    5.1877    0.7559    0.0000 C   0  0  0  0  0  0  0  0  0  0  0  0
    6.4842    1.5104    0.0000 C   0  0  0  0  0  0  0  0  0  0  0  0
    9.0829    1.5198    0.0000 C   0  0  0  0  0  0  0  0  0  0  0  0
   10.4891    1.1128    0.0000 C   0  0  0  0  0  0  0  0  0  0  0  0
   10.8700    2.5636    0.0000 C   0  0  0  0  0  0  0  0  0  0  0  0
    9.4192    2.9446    0.0000 C   0  0  0  0  0  0  0  0  0  0  0  0
   -6.4965    3.0203    0.0000 N   0  0  0  0  0  0  0  0  0  0  0  0
   -6.5065    1.5203    0.0000 C   0  0  0  0  0  0  0  0  0  0  0  0
   -5.2125    0.7617    0.0000 C   0  0  0  0  0  0  0  0  0  0  0  0
   -3.9086    1.5029    0.0000 C   0  0  0  0  0  0  0  0  0  0  0  0
   -3.8985    3.0029    0.0000 C   0  0  0  0  0  0  0  0  0  0  0  0
   -5.1925    3.7616    0.0000 C   0  0  0  0  0  0  0  0  0  0  0  0
   -7.7912    3.7793    0.0000 C   0  0  0  0  0  0  0  0  0  0  0  0
   -9.1987    3.3769    0.0000 C   0  0  0  0  0  0  0  0  0  0  0  0
   -9.5749    4.8289    0.0000 C   0  0  0  0  0  0  0  0  0  0  0  0
   -8.1229    5.2052    0.0000 C   0  0  0  0  0  0  0  0  0  0  0  0
  1  2  1  0
  2  3  1  0
  3  4  1  0
  4  5  1  0
  5  6  1  0
  6  7  2  0
  7  8  1  0
  8  9  2  0
  9 10  1  0
  1 10  1  0
  5 10  2  0
  1 11  2  0
 13 14  1  0
 14 15  1  0
 15 16  1  0
 16 17  1  0
 17 18  1  0
 13 18  1  0
 12 16  1  0
 19 20  1  0
 20 21  1  0
 21 22  1  0
 19 22  1  0
 13 19  1  0
  7 12  1  0
 23 24  1  0
 24 25  1  0
 25 26  1  0
 26 27  1  0
 27 28  1  0
 23 28  1  0
 29 30  1  0
 30 31  1  0
 31 32  1  0
 29 32  1  0
 23 29  1  0
  2 26  1  0
M  END
> <chembl_id>
CHEMBL3753475

> <chembl_pref_name>
None

$$$$

     RDKit          2D

 22 23  0  0  0  0  0  0  0  0999 V2000
    3.2216   -6.3701    0.0000 Cl  0  0  0  0  0  0  0  0  0  0  0  0
    1.7443   -8.2039    0.0000 C   0  0  0  0  0  0  0  0  0  0  0  0
    2.4764   -8.4929    0.0000 C   0  0  0  0  0  0  0  0  0  0  0  0
    1.0597   -8.5672    0.0000 C   0  0  0  0  0  0  0  0  0  0  0  0
    2.2777  -10.0213    0.0000 S   0  0  0  0  0  0  0  0  0  0  0  0
    2.7312   -9.3027    0.0000 C   0  0  0  0  0  0  0  0  0  0  0  0
    1.7013   -7.3830    0.0000 C   0  0  0  0  0  0  0  0  0  0  0  0
    0.8705   -9.4312    0.0000 C   0  0  0  0  0  0  0  0  0  0  0  0
    1.3774  -10.0685    0.0000 C   0  0  0  0  0  0  0  0  0  0  0  0
   -0.4657   -7.0717    0.0000 N   0  0  0  0  0  0  0  0  0  0  0  0
    0.9509   -6.9975    0.0000 C   0  0  0  0  0  0  0  0  0  0  0  0
    0.4392   -8.0421    0.0000 C   0  0  0  0  0  0  0  0  0  0  0  0
    3.0419   -7.8836    0.0000 C   0  0  0  0  0  0  0  0  0  0  0  0
    0.2617   -7.4407    0.0000 C   0  0  0  0  0  0  0  0  0  0  0  0
    3.5414   -9.4771    0.0000 C   0  0  0  0  0  0  0  0  0  0  0  0
    0.1002   -9.6795    0.0000 C   0  0  0  0  0  0  0  0  0  0  0  0
   -1.1726   -7.5159    0.0000 C   0  0  0  0  0  0  0  0  0  0  0  0
   -0.5088   -6.2509    0.0000 C   0  0  0  0  0  0  0  0  0  0  0  0
   -0.3350   -8.2996    0.0000 C   0  0  0  0  0  0  0  0  0  0  0  0
    3.8393   -8.0675    0.0000 C   0  0  0  0  0  0  0  0  0  0  0  0
    4.0887   -8.8598    0.0000 C   0  0  0  0  0  0  0  0  0  0  0  0
   -0.5135   -9.1143    0.0000 C   0  0  0  0  0  0  0  0  0  0  0  0
  3  2  1  0
  4  2  1  0
  5  6  1  0
  6  3  1  0
  7  2  2  0
  8  4  1  0
  9  8  1  0
 10 14  1  0
 11  7  1  0
 12  4  2  0
 13  3  2  0
 14 11  1  0
 15  6  2  0
 16  8  2  0
 17 10  1  0
 18 10  1  0
 19 12  1  0
 20 13  1  0
 21 20  2  0
 22 19  2  0
  5  9  1  0
 22 16  1  0
 21 15  1  0
M  END
> <chembl_id>
CHEMBL1711280

> <chembl_pref_name>
DOTHIEPIN HYDROCHLORIDE

$$$$

     RDKit          2D

 24 27  0  0  0  0  0  0  0  0999 V2000
    0.6250   -1.5792    0.0000 C   0  0  0  0  0  0  0  0  0  0  0  0
   -0.1208   -0.6667    0.0000 C   0  0  0  0  0  0  0  0  0  0  0  0
   -0.6583   -3.2542    0.0000 S   0  0  0  0  0  0  0  0  0  0  0  0
    0.3792   -2.7292    0.0000 C   0  0  0  0  0  0  0  0  0  0  0  0
    0.3667    0.3833    0.0000 N   0  0  0  0  0  0  0  0  0  0  0  0
   -1.3000   -0.6667    0.0000 C   0  0  0  0  0  0  0  0  0  0  0  0
   -1.7250   -2.7417    0.0000 C   0  0  0  0  0  0  0  0  0  0  0  0
   -2.0083   -1.5917    0.0000 C   0  0  0  0  0  0  0  0  0  0  0  0
    1.3375    2.5083    0.0000 N   0  0  0  0  0  0  0  0  0  0  0  0
    1.7792   -1.2042    0.0000 C   0  0  0  0  0  0  0  0  0  0  0  0
    1.5375    0.4625    0.0000 C   0  0  0  0  0  0  0  0  0  0  0  0
   -0.3083    1.3083    0.0000 C   0  0  0  0  0  0  0  0  0  0  0  0
    1.2917   -3.5167    0.0000 C   0  0  0  0  0  0  0  0  0  0  0  0
    2.0417    1.5083    0.0000 C   0  0  0  0  0  0  0  0  0  0  0  0
    0.1792    2.4000    0.0000 C   0  0  0  0  0  0  0  0  0  0  0  0
    2.6542   -2.0000    0.0000 C   0  0  0  0  0  0  0  0  0  0  0  0
    3.7667   -1.6500    0.0000 S   0  0  0  0  0  0  0  0  0  0  0  0
    2.4167   -3.1417    0.0000 C   0  0  0  0  0  0  0  0  0  0  0  0
    1.7625    3.5958    0.0000 C   0  0  0  0  0  0  0  0  0  0  0  0
   -2.5958   -3.5875    0.0000 C   0  0  0  0  0  0  0  0  0  0  0  0
   -3.1583   -1.2750    0.0000 C   0  0  0  0  0  0  0  0  0  0  0  0
    4.0125   -0.5125    0.0000 C   0  0  0  0  0  0  0  0  0  0  0  0
   -4.0208   -2.0917    0.0000 C   0  0  0  0  0  0  0  0  0  0  0  0
   -3.7333   -3.2417    0.0000 C   0  0  0  0  0  0  0  0  0  0  0  0
  2  1  1  0
  3  4  1  0
  4  1  2  0
  5  2  1  0
  6  2  1  0
  7  3  1  0
  8  6  1  0
  9 15  1  0
 10  1  1  0
 11  5  1  0
 12  5  1  0
 13  4  1  0
 14 11  1  0
 15 12  1  0
 16 10  2  0
 17 16  1  0
 18 16  1  0
 19  9  1  0
 20  7  1  0
 21  8  1  0
 22 17  1  0
 23 21  2  0
 24 20  2  0
 13 18  2  0
  8  7  2  0
 14  9  1  0
 23 24  1  0
M  END
> <chembl_id>
CHEMBL93240

> <chembl_pref_name>
METITEPINE

$$$$

     RDKit          2D

 23 26  0  0  0  0  0  0  0  0999 V2000
   -0.5458   -0.3917    0.0000 C   0  0  0  0  0  0  0  0  0  0  0  0
   -1.6875   -0.3917    0.0000 C   0  0  0  0  0  0  0  0  0  0  0  0
    0.1542   -1.3125    0.0000 C   0  0  0  0  0  0  0  0  0  0  0  0
   -1.1333   -2.9000    0.0000 S   0  0  0  0  0  0  0  0  0  0  0  0
   -0.1208   -2.4167    0.0000 C   0  0  0  0  0  0  0  0  0  0  0  0
   -2.4208   -1.2750    0.0000 C   0  0  0  0  0  0  0  0  0  0  0  0
   -2.1708   -2.3792    0.0000 C   0  0  0  0  0  0  0  0  0  0  0  0
    4.2167   -1.1167    0.0000 N   0  0  0  0  0  0  0  0  0  0  0  0
    0.1667    0.4625    0.0000 C   0  0  0  0  0  0  0  0  0  0  0  0
   -2.3833    0.4833    0.0000 C   0  0  0  0  0  0  0  0  0  0  0  0
   -1.0583    2.1125    0.0000 N   0  0  0  0  0  0  0  0  0  0  0  0
    3.1375   -1.4375    0.0000 C   0  0  0  0  0  0  0  0  0  0  0  0
    1.2250   -0.9917    0.0000 C   0  0  0  0  0  0  0  0  0  0  0  0
    0.6792   -3.2000    0.0000 C   0  0  0  0  0  0  0  0  0  0  0  0
   -2.1083    1.5875    0.0000 C   0  0  0  0  0  0  0  0  0  0  0  0
   -0.0375    1.5833    0.0000 C   0  0  0  0  0  0  0  0  0  0  0  0
    2.0417   -1.7542    0.0000 C   0  0  0  0  0  0  0  0  0  0  0  0
    1.7750   -2.8625    0.0000 C   0  0  0  0  0  0  0  0  0  0  0  0
   -3.5000   -0.9292    0.0000 C   0  0  0  0  0  0  0  0  0  0  0  0
   -2.9958   -3.1500    0.0000 C   0  0  0  0  0  0  0  0  0  0  0  0
   -1.0708    3.2083    0.0000 C   0  0  0  0  0  0  0  0  0  0  0  0
   -4.3458   -1.7000    0.0000 C   0  0  0  0  0  0  0  0  0  0  0  0
   -4.0708   -2.8375    0.0000 C   0  0  0  0  0  0  0  0  0  0  0  0
  2  1  2  0
  3  1  1  0
  4  5  1  0
  5  3  2  0
  6  2  1  0
  7  6  2  0
  8 12  3  0
  9  1  1  0
 10  2  1  0
 11 16  1  0
 12 17  1  0
 13  3  1  0
 14  5  1  0
 15 10  1  0
 16  9  1  0
 17 13  2  0
 18 17  1  0
 19  6  1  0
 20  7  1  0
 21 11  1  0
 22 19  2  0
 23 22  1  0
 15 11  1  0
  7  4  1  0
 14 18  2  0
 20 23  2  0
M  END
> <chembl_id>
CHEMBL2104117

> <chembl_pref_name>
CITATEPINE

$$$$

     RDKit          2D

 11 11  0  0  0  0  0  0  0  0999 V2000
   -1.0750    0.1000    0.0000 C   0  0  0  0  0  0  0  0  0  0  0  0
   -1.4083   -1.0917    0.0000 N   0  0  0  0  0  0  0  0  0  0  0  0
    0.2292    2.3708    0.0000 O   0  0  0  0  0  0  0  0  0  0  0  0
    1.5542    0.1125    0.0000 O   0  0  0  0  0  0  0  0  0  0  0  0
   -1.0750    1.5958    0.0000 C   0  0  0  0  0  0  0  0  0  0  0  0
    0.2417   -0.6542    0.0000 C   0  0  0  0  0  0  0  0  0  0  0  0
    0.0875   -1.3042    0.0000 O   0  0  0  0  0  0  0  0  0  0  0  0
   -2.3833   -2.2375    0.0000 O   0  0  0  0  0  0  0  0  0  0  0  0
    1.5542    1.6083    0.0000 C   0  0  0  0  0  0  0  0  0  0  0  0
   -2.2500    0.0458    0.0000 Br  0  0  0  0  0  0  0  0  0  0  0  0
    2.6500    2.1833    0.0000 C   0  0  0  0  0  0  0  0  0  0  0  0
  2  1  1  0
  3  5  1  0
  4  6  1  0
  5  1  1  0
  6  1  1  0
  7  2  1  0
  8  2  2  0
  9  4  1  0
 10  1  1  0
 11  9  1  0
  3  9  1  0
M  CHG  2   2   1   7  -1
M  END
> <chembl_id>
CHEMBL2105156

> <chembl_pref_name>
NIBROXANE

$$$$

     RDKit          2D

  3  2  0  0  0  0  0  0  0  0999 V2000
   -0.4708    0.2208    0.0000 O   0  0  0  0  0  0  0  0  0  0  0  0
   -0.1083   -1.1500    0.0000 H   0  0  0  0  0  0  0  0  0  0  0  0
    0.5500    1.2458    0.0000 H   0  0  0  0  0  0  0  0  0  0  0  0
  2  1  1  0
  3  1  1  0
M  ISO  2   2   2   3   2
M  END
> <chembl_id>
CHEMBL1232306

> <chembl_pref_name>
DEUTERIUM OXIDE

$$$$

     RDKit          2D

 32 35  0  0  1  0  0  0  0  0999 V2000
    1.1042    0.8750    0.0000 C   0  0  0  0  0  0  0  0  0  0  0  0
   -1.2083   -0.4417    0.0000 C   0  0  0  0  0  0  0  0  0  0  0  0
   -1.2083   -1.3125    0.0000 C   0  0  0  0  0  0  0  0  0  0  0  0
    1.1042   -0.0167    0.0000 C   0  0  0  0  0  0  0  0  0  0  0  0
   -0.4208    0.0083    0.0000 C   0  0  0  0  0  0  0  0  0  0  0  0
    0.3167   -0.4417    0.0000 C   0  0  0  0  0  0  0  0  0  0  0  0
    2.0792    2.0208    0.0000 C   0  0  0  0  0  0  0  0  0  0  0  0
    1.9500    1.1375    0.0000 C   0  0  0  0  0  0  0  0  0  0  0  0
   -1.9708   -1.7292    0.0000 C   0  0  0  0  0  0  0  0  0  0  0  0
   -2.7083   -1.2792    0.0000 C   0  0  0  0  0  0  0  0  0  0  0  0
   -0.4458   -1.7292    0.0000 C   0  0  0  0  0  0  0  0  0  0  0  0
   -3.5000   -1.7042    0.0000 C   0  0  0  0  0  0  0  0  0  0  0  0
    2.9375    2.3833    0.0000 N   0  0  0  0  0  0  0  0  0  0  0  0
    0.3417    1.3208    0.0000 C   0  0  0  0  0  0  0  0  0  0  0  0
    0.3167   -1.3375    0.0000 C   0  0  0  0  0  0  0  0  0  0  0  0
   -1.9458    0.0083    0.0000 C   0  0  0  0  0  0  0  0  0  0  0  0
   -0.4208    0.9000    0.0000 C   0  0  0  0  0  0  0  0  0  0  0  0
    1.9167   -0.2792    0.0000 C   0  0  0  0  0  0  0  0  0  0  0  0
    2.4167    0.4583    0.0000 C   0  0  0  0  0  0  0  0  0  0  0  0
   -2.7083   -0.4417    0.0000 C   0  0  0  0  0  0  0  0  0  0  0  0
    1.4625    2.6458    0.0000 O   0  0  0  0  0  0  0  0  0  0  0  0
    3.6667    1.7208    0.0000 C   0  0  0  0  0  0  0  0  0  0  0  0
   -3.5500   -2.5750    0.0000 O   0  0  0  0  0  0  0  0  0  0  0  0
   -4.2333   -1.2292    0.0000 O   0  0  0  0  0  0  0  0  0  0  0  0
    1.1042    1.8208    0.0000 C   0  0  0  0  0  0  0  0  0  0  0  0
   -1.2083    0.4583    0.0000 C   0  0  0  0  0  0  0  0  0  0  0  0
    4.3417    1.0708    0.0000 C   0  0  0  0  0  0  0  0  0  0  0  0
    4.2500    2.2583    0.0000 C   0  0  0  0  0  0  0  0  0  0  0  0
    3.0792    1.1750    0.0000 C   0  0  0  0  0  0  0  0  0  0  0  0
    1.1042   -0.9792    0.0000 H   0  0  0  0  0  0  0  0  0  0  0  0
    0.3417    0.4583    0.0000 H   0  0  0  0  0  0  0  0  0  0  0  0
   -0.4458   -0.8917    0.0000 H   0  0  0  0  0  0  0  0  0  0  0  0
  2  5  1  0
  3  2  1  0
  4  1  1  0
  5 17  1  0
  6  4  1  0
  8  7  1  1
  8  1  1  0
  9  3  1  0
 10 20  1  0
 11 15  1  0
 12 10  1  0
 13  7  1  0
 14  1  1  0
 15  6  1  0
 16  2  1  0
 17 14  1  0
 18  4  1  0
 19  8  1  0
 20 16  1  0
 21  7  2  0
 22 13  1  0
 23 12  2  0
 24 12  1  0
  1 25  1  1
  2 26  1  1
 27 22  1  0
 28 22  1  0
 29 22  1  0
  4 30  1  6
  6 31  1  1
  5 32  1  6
 18 19  1  0
  6  5  1  0
 11  3  2  0
  9 10  2  0
M  END
> <chembl_id>
CHEMBL138225

> <chembl_pref_name>
EPRISTERIDE

$$$$

     RDKit          2D

 33 36  0  0  0  0  0  0  0  0999 V2000
    3.2542    2.3333    0.0000 Cl  0  0  0  0  0  0  0  0  0  0  0  0
   -0.0875   -1.5250    0.0000 C   0  0  0  0  0  0  0  0  0  0  0  0
   -0.1833    2.0833    0.0000 C   0  0  0  0  0  0  0  0  0  0  0  0
    1.3792   -1.5375    0.0000 C   0  0  0  0  0  0  0  0  0  0  0  0
    0.6542   -0.2167    0.0000 C   0  0  0  0  0  0  0  0  0  0  0  0
    0.6542    1.6000    0.0000 C   0  0  0  0  0  0  0  0  0  0  0  0
   -0.0833   -0.7167    0.0000 C   0  0  0  0  0  0  0  0  0  0  0  0
    1.3917   -0.7250    0.0000 O   0  0  0  0  0  0  0  0  0  0  0  0
   -1.0250    1.6000    0.0000 C   0  0  0  0  0  0  0  0  0  0  0  0
   -1.8708    2.0833    0.0000 C   0  0  0  0  0  0  0  0  0  0  0  0
   -0.1833    3.0625    0.0000 C   0  0  0  0  0  0  0  0  0  0  0  0
    1.4917    2.0833    0.0000 N   0  0  0  0  0  0  0  0  0  0  0  0
   -0.9458   -2.0792    0.0000 C   0  0  0  0  0  0  0  0  0  0  0  0
   -1.8708    3.0625    0.0000 C   0  0  0  0  0  0  0  0  0  0  0  0
   -1.0250    3.5500    0.0000 C   0  0  0  0  0  0  0  0  0  0  0  0
   -0.9208   -0.1250    0.0000 C   0  0  0  0  0  0  0  0  0  0  0  0
   -3.3458    2.0833    0.0000 O   0  0  0  0  0  0  0  0  0  0  0  0
   -2.6083    3.4833    0.0000 O   0  0  0  0  0  0  0  0  0  0  0  0
    2.2542   -2.0167    0.0000 O   0  0  0  0  0  0  0  0  0  0  0  0
   -1.7958   -1.5792    0.0000 C   0  0  0  0  0  0  0  0  0  0  0  0
    0.6542    3.5500    0.0000 C   0  0  0  0  0  0  0  0  0  0  0  0
   -3.3458    2.9833    0.0000 C   0  0  0  0  0  0  0  0  0  0  0  0
    1.4917    3.0625    0.0000 C   0  0  0  0  0  0  0  0  0  0  0  0
   -1.7833   -0.6000    0.0000 C   0  0  0  0  0  0  0  0  0  0  0  0
   -1.0250    0.6208    0.0000 O   0  0  0  0  0  0  0  0  0  0  0  0
   -0.9458   -3.0917    0.0000 O   0  0  0  0  0  0  0  0  0  0  0  0
   -2.6833   -2.0542    0.0000 O   0  0  0  0  0  0  0  0  0  0  0  0
    2.3375    1.6000    0.0000 C   0  0  0  0  0  0  0  0  0  0  0  0
   -1.9083    0.1583    0.0000 C   0  0  0  0  0  0  0  0  0  0  0  0
   -1.7958   -3.5917    0.0000 C   0  0  0  0  0  0  0  0  0  0  0  0
   -3.5333   -1.5417    0.0000 C   0  0  0  0  0  0  0  0  0  0  0  0
    1.4792    1.1000    0.0000 H   0  0  0  0  0  0  0  0  0  0  0  0
    0.0625    0.1458    0.0000 H   0  0  0  0  0  0  0  0  0  0  0  0
  3  6  1  0
  4  2  1  0
  5  7  1  0
  6  5  1  0
  7  2  2  0
  8  4  1  0
  9  3  1  0
 10  9  2  0
 11  3  2  0
 12  6  1  0
 13  2  1  0
 14 15  2  0
 15 11  1  0
 16  7  1  0
 17 10  1  0
 18 14  1  0
 19  4  2  0
 20 13  2  0
 21 23  1  0
 22 17  1  0
 23 12  1  0
 24 20  1  0
 25  9  1  0
 26 13  1  0
 27 20  1  0
 28 12  1  0
 29 25  1  0
 30 26  1  0
 31 27  1  0
  6 32  1  6
  5 33  1  6
  5  8  1  0
 16 24  2  0
 11 21  1  0
 10 14  1  0
 18 22  1  0
M  END
> <chembl_id>
CHEMBL2106732

> <chembl_pref_name>
NOSCAPINE HYDROCHLORIDE

$$$$

     RDKit          2D

 22 23  0  0  1  0  0  0  0  0999 V2000
   -2.3208   -0.1542    0.0000 C   0  0  0  0  0  0  0  0  0  0  0  0
   -0.3375    0.2208    0.0000 N   0  0  0  0  0  0  0  0  0  0  0  0
   -1.0333   -0.1167    0.0000 C   0  0  0  0  0  0  0  0  0  0  0  0
   -2.9625    0.2125    0.0000 C   0  0  0  0  0  0  0  0  0  0  0  0
   -2.3208   -0.9000    0.0000 C   0  0  0  0  0  0  0  0  0  0  0  0
   -1.6708    0.2125    0.0000 C   0  0  0  0  0  0  0  0  0  0  0  0
   -3.6000   -0.9000    0.0000 C   0  0  0  0  0  0  0  0  0  0  0  0
    3.6375    0.9625    0.0000 C   0  0  0  0  0  0  0  0  0  0  0  0
    2.3375    0.2333    0.0000 C   0  0  0  0  0  0  0  0  0  0  0  0
   -3.6000   -0.1542    0.0000 C   0  0  0  0  0  0  0  0  0  0  0  0
   -2.9625   -1.2667    0.0000 C   0  0  0  0  0  0  0  0  0  0  0  0
    1.6792   -0.1375    0.0000 C   0  0  0  0  0  0  0  0  0  0  0  0
    2.9917    1.3458    0.0000 C   0  0  0  0  0  0  0  0  0  0  0  0
    3.6292    0.2125    0.0000 C   0  0  0  0  0  0  0  0  0  0  0  0
    2.3417    0.9750    0.0000 C   0  0  0  0  0  0  0  0  0  0  0  0
    2.9792   -0.1542    0.0000 C   0  0  0  0  0  0  0  0  0  0  0  0
   -1.7083    1.0458    0.0000 O   0  0  0  0  0  0  0  0  0  0  0  0
    0.9917    0.2583    0.0000 C   0  0  0  0  0  0  0  0  0  0  0  0
   -4.2500   -1.2750    0.0000 O   0  0  0  0  0  0  0  0  0  0  0  0
    4.2875    1.3333    0.0000 O   0  0  0  0  0  0  0  0  0  0  0  0
    0.3375   -0.0792    0.0000 C   0  0  0  0  0  0  0  0  0  0  0  0
    0.3542   -0.8292    0.0000 C   0  0  0  0  0  0  0  0  0  0  0  0
  2  3  1  0
  3  6  1  0
  4  1  1  0
  5  1  2  0
  6  1  1  0
  7 11  2  0
  8 14  1  0
  9 12  1  0
 10  4  2  0
 11  5  1  0
 12 18  1  0
 13 15  1  0
 14 16  2  0
 15  9  2  0
 16  9  1  0
  6 17  1  1
 18 21  1  0
 19  7  1  0
 20  8  1  0
 21  2  1  0
 21 22  1  1
 10  7  1  0
 13  8  2  0
M  END
> <chembl_id>
CHEMBL2103767

> <chembl_pref_name>
BUTOPAMINE

$$$$

     RDKit          2D

 28 31  0  0  0  0  0  0  0  0999 V2000
    0.6667   -4.7625    0.0000 C   0  0  0  0  0  0  0  0  0  0  0  0
    1.2667   -5.0875    0.0000 C   0  0  0  0  0  0  0  0  0  0  0  0
    0.0125   -5.0750    0.0000 C   0  0  0  0  0  0  0  0  0  0  0  0
    1.0000   -6.3292    0.0000 O   0  0  0  0  0  0  0  0  0  0  0  0
    1.4250   -5.7792    0.0000 C   0  0  0  0  0  0  0  0  0  0  0  0
    1.8625   -2.6167    0.0000 N   0  0  0  0  0  0  0  0  0  0  0  0
    3.0917   -1.9125    0.0000 N   0  0  0  0  0  0  0  0  0  0  0  0
    0.6667   -4.0292    0.0000 C   0  0  0  0  0  0  0  0  0  0  0  0
    1.8125   -4.6042    0.0000 C   0  0  0  0  0  0  0  0  0  0  0  0
   -0.1708   -5.7792    0.0000 C   0  0  0  0  0  0  0  0  0  0  0  0
    0.3042   -6.3167    0.0000 C   0  0  0  0  0  0  0  0  0  0  0  0
    2.1042   -5.9792    0.0000 C   0  0  0  0  0  0  0  0  0  0  0  0
    2.4792   -4.8042    0.0000 C   0  0  0  0  0  0  0  0  0  0  0  0
    1.8750   -1.9042    0.0000 C   0  0  0  0  0  0  0  0  0  0  0  0
    3.0667   -2.6000    0.0000 C   0  0  0  0  0  0  0  0  0  0  0  0
    2.4750   -1.5542    0.0000 C   0  0  0  0  0  0  0  0  0  0  0  0
    2.4417   -2.9500    0.0000 C   0  0  0  0  0  0  0  0  0  0  0  0
    2.6542   -5.5000    0.0000 C   0  0  0  0  0  0  0  0  0  0  0  0
    3.0167   -4.3167    0.0000 Cl  0  0  0  0  0  0  0  0  0  0  0  0
    1.2417   -3.6875    0.0000 C   0  0  0  0  0  0  0  0  0  0  0  0
    1.2542   -2.9792    0.0000 C   0  0  0  0  0  0  0  0  0  0  0  0
   -0.4333   -4.5750    0.0000 C   0  0  0  0  0  0  0  0  0  0  0  0
    3.7125   -1.5667    0.0000 C   0  0  0  0  0  0  0  0  0  0  0  0
    4.3542   -2.6292    0.0000 O   0  0  0  0  0  0  0  0  0  0  0  0
   -0.8750   -5.9917    0.0000 C   0  0  0  0  0  0  0  0  0  0  0  0
    4.3750   -1.9792    0.0000 C   0  0  0  0  0  0  0  0  0  0  0  0
   -1.1708   -4.7917    0.0000 C   0  0  0  0  0  0  0  0  0  0  0  0
   -1.3458   -5.4667    0.0000 C   0  0  0  0  0  0  0  0  0  0  0  0
  2  1  1  0
  3  1  1  0
  4  5  1  0
  5  2  2  0
  6 21  1  0
  7 15  1  0
  8  1  2  0
  9  2  1  0
 10  3  2  0
 11 10  1  0
 12  5  1  0
 13  9  2  0
 14  6  1  0
 15 17  1  0
 16 14  1  0
 17  6  1  0
 18 13  1  0
 19 13  1  0
 20  8  1  0
 21 20  1  0
 22  3  1  0
 23  7  1  0
 24 26  1  0
 25 10  1  0
 26 23  1  0
 27 22  2  0
 28 27  1  0
  4 11  1  0
 25 28  2  0
 12 18  2  0
 16  7  1  0
M  END
> <chembl_id>
CHEMBL2110968

> <chembl_pref_name>
PINOXEPIN

$$$$

     RDKit          2D

 23 23  0  0  0  0  0  0  0  0999 V2000
   -1.9458    1.1583    0.0000 C   0  0  0  0  0  0  0  0  0  0  0  0
    2.3500   -0.0792    0.0000 C   0  0  0  0  0  0  0  0  0  0  0  0
   -3.0250    1.8125    0.0000 N   0  0  0  0  0  0  0  0  0  0  0  0
    2.3625    1.1583    0.0000 C   0  0  0  0  0  0  0  0  0  0  0  0
   -0.8958    1.7833    0.0000 C   0  0  0  0  0  0  0  0  0  0  0  0
    0.2042    1.1583    0.0000 C   0  0  0  0  0  0  0  0  0  0  0  0
   -0.8958   -1.9417    0.0000 C   0  0  0  0  0  0  0  0  0  0  0  0
    1.2792    1.7833    0.0000 N   0  0  0  0  0  0  0  0  0  0  0  0
   -1.9458   -0.0792    0.0000 C   0  0  0  0  0  0  0  0  0  0  0  0
   -0.8958   -0.7125    0.0000 C   0  0  0  0  0  0  0  0  0  0  0  0
    0.2042   -0.0792    0.0000 C   0  0  0  0  0  0  0  0  0  0  0  0
    3.4667   -0.0792    0.0000 C   0  0  0  0  0  0  0  0  0  0  0  0
   -4.1083    1.2083    0.0000 O   0  0  0  0  0  0  0  0  0  0  0  0
   -3.0000    3.0500    0.0000 O   0  0  0  0  0  0  0  0  0  0  0  0
    3.4167    1.7625    0.0000 O   0  0  0  0  0  0  0  0  0  0  0  0
    1.1000   -0.0792    0.0000 F   0  0  0  0  0  0  0  0  0  0  0  0
    2.3500   -1.3417    0.0000 F   0  0  0  0  0  0  0  0  0  0  0  0
   -0.8958    3.0208    0.0000 N   0  0  0  0  0  0  0  0  0  0  0  0
    0.3375   -1.9750    0.0000 F   0  0  0  0  0  0  0  0  0  0  0  0
   -2.1333   -1.9417    0.0000 F   0  0  0  0  0  0  0  0  0  0  0  0
   -0.9208   -3.1792    0.0000 F   0  0  0  0  0  0  0  0  0  0  0  0
    4.2042    0.9708    0.0000 F   0  0  0  0  0  0  0  0  0  0  0  0
    4.2042   -1.1792    0.0000 F   0  0  0  0  0  0  0  0  0  0  0  0
  2  4  1  0
  3  1  1  0
  4  8  1  0
  5  1  2  0
  6  5  1  0
  7 10  1  0
  8  6  1  0
  9  1  1  0
 10  9  2  0
 11 10  1  0
 12  2  1  0
 13  3  1  0
 14  3  2  0
 15  4  2  0
 16  2  1  0
 17  2  1  0
 18  5  1  0
 19  7  1  0
 20  7  1  0
 21  7  1  0
 22 12  1  0
 23 12  1  0
  6 11  2  0
M  CHG  2   3   1  13  -1
M  END
> <chembl_id>
CHEMBL2106844

> <chembl_pref_name>
NIFLURIDIDE

$$$$

     RDKit          2D

 22 24  0  0  0  0  0  0  0  0999 V2000
   -0.7625   -1.4917    0.0000 C   0  0  0  0  0  0  0  0  0  0  0  0
   -0.1958    1.2583    0.0000 N   0  0  0  0  0  0  0  0  0  0  0  0
    0.3417   -0.9375    0.0000 C   0  0  0  0  0  0  0  0  0  0  0  0
    0.6000    0.2833    0.0000 C   0  0  0  0  0  0  0  0  0  0  0  0
   -1.9083   -0.9542    0.0000 C   0  0  0  0  0  0  0  0  0  0  0  0
   -2.2083    0.2708    0.0000 C   0  0  0  0  0  0  0  0  0  0  0  0
   -1.4500    1.2583    0.0000 C   0  0  0  0  0  0  0  0  0  0  0  0
   -0.7375   -2.7500    0.0000 C   0  0  0  0  0  0  0  0  0  0  0  0
    0.3292    2.3833    0.0000 C   0  0  0  0  0  0  0  0  0  0  0  0
    1.5750    2.4833    0.0000 C   0  0  0  0  0  0  0  0  0  0  0  0
    3.5792    1.6125    0.0000 N   0  0  0  0  0  0  0  0  0  0  0  0
    1.3167   -1.7792    0.0000 C   0  0  0  0  0  0  0  0  0  0  0  0
    1.8292    0.6833    0.0000 C   0  0  0  0  0  0  0  0  0  0  0  0
   -2.8333   -1.8500    0.0000 C   0  0  0  0  0  0  0  0  0  0  0  0
   -3.4333    0.6125    0.0000 C   0  0  0  0  0  0  0  0  0  0  0  0
    2.3292    1.4708    0.0000 C   0  0  0  0  0  0  0  0  0  0  0  0
    4.3417    0.6125    0.0000 C   0  0  0  0  0  0  0  0  0  0  0  0
    4.0250    2.7583    0.0000 C   0  0  0  0  0  0  0  0  0  0  0  0
    2.5167   -1.3792    0.0000 C   0  0  0  0  0  0  0  0  0  0  0  0
   -4.0458   -1.4792    0.0000 C   0  0  0  0  0  0  0  0  0  0  0  0
    2.7667   -0.1542    0.0000 C   0  0  0  0  0  0  0  0  0  0  0  0
   -4.3458   -0.2542    0.0000 C   0  0  0  0  0  0  0  0  0  0  0  0
  2  4  1  0
  3  1  1  0
  4  3  2  0
  5  1  1  0
  6  5  2  0
  7  6  1  0
  8  1  2  0
  9  2  1  0
 10  9  1  0
 11 16  1  0
 12  3  1  0
 13  4  1  0
 14  5  1  0
 15  6  1  0
 16 10  1  0
 17 11  1  0
 18 11  1  0
 19 12  2  0
 20 14  2  0
 21 19  1  0
 22 20  1  0
  2  7  1  0
 15 22  2  0
 13 21  2  0
M  END
> <chembl_id>
CHEMBL2106212

> <chembl_pref_name>
ENPRAZEPINE

$$$$

     RDKit          2D

 20 20  0  0  0  0  0  0  0  0999 V2000
    7.1667   -6.4917    0.0000 Cl  0  0  0  0  0  0  0  0  0  0  0  0
    4.2667   -4.6042    0.0000 C   0  0  0  0  0  0  0  0  0  0  0  0
    4.2667   -5.3125    0.0000 C   0  0  0  0  0  0  0  0  0  0  0  0
    3.6625   -4.2417    0.0000 C   0  0  0  0  0  0  0  0  0  0  0  0
    4.2667   -6.0167    0.0000 C   0  0  0  0  0  0  0  0  0  0  0  0
    4.9917   -5.3125    0.0000 O   0  0  0  0  0  0  0  0  0  0  0  0
    6.4042   -4.0917    0.0000 N   0  0  0  0  0  0  0  0  0  0  0  0
    4.9042   -4.2542    0.0000 C   0  0  0  0  0  0  0  0  0  0  0  0
    3.0292   -4.6042    0.0000 C   0  0  0  0  0  0  0  0  0  0  0  0
    3.6625   -3.5292    0.0000 C   0  0  0  0  0  0  0  0  0  0  0  0
    4.9042   -6.3667    0.0000 C   0  0  0  0  0  0  0  0  0  0  0  0
    3.6625   -6.3792    0.0000 C   0  0  0  0  0  0  0  0  0  0  0  0
    6.0417   -4.6917    0.0000 C   0  0  0  0  0  0  0  0  0  0  0  0
    7.1167   -4.0917    0.0000 C   0  0  0  0  0  0  0  0  0  0  0  0
    5.3375   -4.6917    0.0000 C   0  0  0  0  0  0  0  0  0  0  0  0
    4.8917   -3.5542    0.0000 C   0  0  0  0  0  0  0  0  0  0  0  0
    4.2667   -3.1875    0.0000 C   0  0  0  0  0  0  0  0  0  0  0  0
    3.6625   -7.0917    0.0000 C   0  0  0  0  0  0  0  0  0  0  0  0
    4.8917   -7.0542    0.0000 C   0  0  0  0  0  0  0  0  0  0  0  0
    4.2667   -7.4375    0.0000 C   0  0  0  0  0  0  0  0  0  0  0  0
  3  2  1  0
  4  2  1  0
  5  3  1  0
  6  3  1  0
  7 13  1  0
  8  2  2  0
  9  4  1  0
 10  4  2  0
 11  5  1  0
 12  5  2  0
 13 15  1  0
 14  7  1  0
 15  6  1  0
 16  8  1  0
 17 16  2  0
 18 12  1  0
 19 11  2  0
 20 19  1  0
 10 17  1  0
 18 20  2  0
M  END
> <chembl_id>
CHEMBL2106673

> <chembl_pref_name>
TOFENACIN HYDROCHLORIDE

$$$$

     RDKit          2D

 35 36  0  0  0  0  0  0  0  0999 V2000
    1.5167    0.4458    0.0000 C   0  0  0  0  0  0  0  0  0  0  0  0
    0.7167    1.8083    0.0000 C   0  0  0  0  0  0  0  0  0  0  0  0
    0.7167    0.9000    0.0000 C   0  0  0  0  0  0  0  0  0  0  0  0
    2.3167    0.9000    0.0000 C   0  0  0  0  0  0  0  0  0  0  0  0
    1.5042    2.2708    0.0000 C   0  0  0  0  0  0  0  0  0  0  0  0
    2.3167    1.8083    0.0000 N   0  0  0  0  0  0  0  0  0  0  0  0
   -0.8458   -1.7375    0.0000 N   0  0  0  0  0  0  0  0  0  0  0  0
   -0.0750    0.4583    0.0000 C   0  0  0  0  0  0  0  0  0  0  0  0
    1.5292   -0.4625    0.0000 C   0  0  0  0  0  0  0  0  0  0  0  0
   -0.0625    2.2458    0.0000 C   0  0  0  0  0  0  0  0  0  0  0  0
   -0.8583   -0.8875    0.0000 C   0  0  0  0  0  0  0  0  0  0  0  0
   -0.0625   -0.4375    0.0000 C   0  0  0  0  0  0  0  0  0  0  0  0
   -0.0583   -2.1792    0.0000 O   0  0  0  0  0  0  0  0  0  0  0  0
   -1.6208   -2.1792    0.0000 O   0  0  0  0  0  0  0  0  0  0  0  0
    2.3167   -0.9000    0.0000 O   0  0  0  0  0  0  0  0  0  0  0  0
   -0.8333    1.7833    0.0000 O   0  0  0  0  0  0  0  0  0  0  0  0
   -0.0750    3.1500    0.0000 O   0  0  0  0  0  0  0  0  0  0  0  0
    0.7542   -0.9292    0.0000 O   0  0  0  0  0  0  0  0  0  0  0  0
    3.1042    0.4708    0.0000 C   0  0  0  0  0  0  0  0  0  0  0  0
    1.5042    3.1833    0.0000 C   0  0  0  0  0  0  0  0  0  0  0  0
   -0.8625    0.9333    0.0000 C   0  0  0  0  0  0  0  0  0  0  0  0
   -1.6458   -0.4375    0.0000 C   0  0  0  0  0  0  0  0  0  0  0  0
   -1.6458    0.4708    0.0000 C   0  0  0  0  0  0  0  0  0  0  0  0
    2.3292   -1.8167    0.0000 O   0  0  0  0  0  0  0  0  0  0  0  0
   -1.6458    2.2333    0.0000 O   0  0  0  0  0  0  0  0  0  0  0  0
    0.7667   -1.8417    0.0000 C   0  0  0  0  0  0  0  0  0  0  0  0
   -0.8833    3.5958    0.0000 C   0  0  0  0  0  0  0  0  0  0  0  0
    1.5542   -2.2792    0.0000 C   0  0  0  0  0  0  0  0  0  0  0  0
   -1.6500    3.1333    0.0000 C   0  0  0  0  0  0  0  0  0  0  0  0
    3.1167   -2.2542    0.0000 C   0  0  0  0  0  0  0  0  0  0  0  0
   -2.4083    1.7875    0.0000 C   0  0  0  0  0  0  0  0  0  0  0  0
    3.1542   -3.1750    0.0000 C   0  0  0  0  0  0  0  0  0  0  0  0
   -3.1875    2.2125    0.0000 C   0  0  0  0  0  0  0  0  0  0  0  0
    3.9542   -3.5875    0.0000 C   0  0  0  0  0  0  0  0  0  0  0  0
   -3.9583    1.7500    0.0000 C   0  0  0  0  0  0  0  0  0  0  0  0
  2  3  1  0
  3  1  1  0
  4  1  2  0
  5  6  1  0
  6  4  1  0
  7 11  1  0
  8  3  1  0
  9  1  1  0
 10  2  1  0
 11 12  2  0
 12  8  1  0
 13  7  1  0
 14  7  2  0
 15  9  2  0
 16 10  2  0
 17 10  1  0
 18  9  1  0
 19  4  1  0
 20  5  1  0
 21  8  2  0
 22 23  2  0
 23 21  1  0
 24 28  1  0
 25 29  1  0
 26 18  1  0
 27 17  1  0
 28 26  1  0
 29 27  1  0
 30 24  1  0
 31 25  1  0
 32 30  1  0
 33 31  1  0
 34 32  1  0
 35 33  1  0
  2  5  2  0
 11 22  1  0
M  CHG  2   7   1  13  -1
M  END
> <chembl_id>
CHEMBL2106840

> <chembl_pref_name>
NILUDIPINE

$$$$

     RDKit          2D

 58 62  0  0  1  0  0  0  0  0999 V2000
    0.1167   -0.3875    0.0000 C   0  0  0  0  0  0  0  0  0  0  0  0
    1.0042   -0.6167    0.0000 C   0  0  0  0  0  0  0  0  0  0  0  0
    0.6250   -0.2667    0.0000 O   0  0  0  0  0  0  0  0  0  0  0  0
   -0.4000   -0.4917    0.0000 O   0  0  0  0  0  0  0  0  0  0  0  0
   -3.1208    0.5375    0.0000 O   0  0  0  0  0  0  0  0  0  0  0  0
   -3.4875    0.9125    0.0000 C   0  0  0  0  0  0  0  0  0  0  0  0
   -1.6083   -0.1167    0.0000 C   0  0  0  0  0  0  0  0  0  0  0  0
   -0.7375   -0.1417    0.0000 C   0  0  0  0  0  0  0  0  0  0  0  0
   -3.2625    0.0333    0.0000 C   0  0  0  0  0  0  0  0  0  0  0  0
    1.4292   -0.9375    0.0000 O   0  0  0  0  0  0  0  0  0  0  0  0
   -1.1958   -0.3542    0.0000 C   0  0  0  0  0  0  0  0  0  0  0  0
   -3.3750    1.4125    0.0000 C   0  0  0  0  0  0  0  0  0  0  0  0
   -2.0458   -0.3792    0.0000 C   0  0  0  0  0  0  0  0  0  0  0  0
   -2.9083   -0.3042    0.0000 C   0  0  0  0  0  0  0  0  0  0  0  0
    1.8917   -0.6500    0.0000 C   0  0  0  0  0  0  0  0  0  0  0  0
   -2.4500   -0.1125    0.0000 C   0  0  0  0  0  0  0  0  0  0  0  0
    2.6542   -0.9792    0.0000 O   0  0  0  0  0  0  0  0  0  0  0  0
    0.0125   -0.9250    0.0000 C   0  0  0  0  0  0  0  0  0  0  0  0
   -2.8833    1.5833    0.0000 C   0  0  0  0  0  0  0  0  0  0  0  0
    2.4375   -0.5667    0.0000 C   0  0  0  0  0  0  0  0  0  0  0  0
   -3.9833    0.7833    0.0000 C   0  0  0  0  0  0  0  0  0  0  0  0
   -3.7625   -0.0792    0.0000 C   0  0  0  0  0  0  0  0  0  0  0  0
   -0.6708    0.3375    0.0000 C   0  0  0  0  0  0  0  0  0  0  0  0
    0.1667    0.2000    0.0000 C   0  0  0  0  0  0  0  0  0  0  0  0
    0.3500   -1.2542    0.0000 C   0  0  0  0  0  0  0  0  0  0  0  0
    3.5125   -0.5667    0.0000 C   0  0  0  0  0  0  0  0  0  0  0  0
    3.1792   -1.0167    0.0000 C   0  0  0  0  0  0  0  0  0  0  0  0
   -4.1208    0.2958    0.0000 C   0  0  0  0  0  0  0  0  0  0  0  0
    0.8167   -1.1417    0.0000 C   0  0  0  0  0  0  0  0  0  0  0  0
   -0.2458    0.5125    0.0000 C   0  0  0  0  0  0  0  0  0  0  0  0
    1.2417   -0.1167    0.0000 C   0  0  0  0  0  0  0  0  0  0  0  0
   -1.6083    0.4083    0.0000 O   0  0  0  0  0  0  0  0  0  0  0  0
    1.7625   -0.1542    0.0000 C   0  0  0  0  0  0  0  0  0  0  0  0
   -2.4875    1.2375    0.0000 O   0  0  0  0  0  0  0  0  0  0  0  0
    3.1792   -0.0917    0.0000 C   0  0  0  0  0  0  0  0  0  0  0  0
    2.6625   -0.1292    0.0000 C   0  0  0  0  0  0  0  0  0  0  0  0
   -2.4000    0.4083    0.0000 O   0  0  0  0  0  0  0  0  0  0  0  0
   -2.7833    2.0958    0.0000 O   0  0  0  0  0  0  0  0  0  0  0  0
    3.9042   -0.2167    0.0000 O   0  0  0  0  0  0  0  0  0  0  0  0
   -3.7708    1.7625    0.0000 C   0  0  0  0  0  0  0  0  0  0  0  0
    1.1542   -1.5292    0.0000 O   0  0  0  0  0  0  0  0  0  0  0  0
   -1.2208   -0.8792    0.0000 C   0  0  0  0  0  0  0  0  0  0  0  0
   -2.0500   -0.9000    0.0000 C   0  0  0  0  0  0  0  0  0  0  0  0
   -3.0000   -0.8250    0.0000 C   0  0  0  0  0  0  0  0  0  0  0  0
    2.0667   -1.1375    0.0000 C   0  0  0  0  0  0  0  0  0  0  0  0
    3.8917   -0.9167    0.0000 C   0  0  0  0  0  0  0  0  0  0  0  0
   -4.3458    1.1583    0.0000 C   0  0  0  0  0  0  0  0  0  0  0  0
   -1.0833    0.6583    0.0000 C   0  0  0  0  0  0  0  0  0  0  0  0
   -3.9125   -0.5792    0.0000 C   0  0  0  0  0  0  0  0  0  0  0  0
    0.6500    0.4083    0.0000 C   0  0  0  0  0  0  0  0  0  0  0  0
    3.4000   -1.4917    0.0000 C   0  0  0  0  0  0  0  0  0  0  0  0
   -3.5708    2.2458    0.0000 C   0  0  0  0  0  0  0  0  0  0  0  0
   -0.7458   -1.0750    0.0000 C   0  0  0  0  0  0  0  0  0  0  0  0
    4.3542   -0.6792    0.0000 C   0  0  0  0  0  0  0  0  0  0  0  0
    3.4375   -0.5624    0.0000 H   0  0  0  0  0  0  0  0  0  0  0  0
   -2.2981    0.2979    0.0000 H   0  0  0  0  0  0  0  0  0  0  0  0
   -0.9212   -1.1247    0.0000 H   0  0  0  0  0  0  0  0  0  0  0  0
   -2.5255    1.1854    0.0000 H   0  0  0  0  0  0  0  0  0  0  0  0
  2  3  1  6
  1  3  1  6
  4  1  1  0
  9  5  1  0
  6  5  1  0
  7 11  1  0
  8  4  1  0
  9 14  1  0
 10  2  1  0
 11  8  1  0
 12  6  1  0
 13  7  1  0
 14 16  1  0
 15 10  1  0
 16 13  1  0
 20 17  1  0
  1 18  1  0
 19 12  1  0
 20 15  1  0
 21 28  1  0
 22  9  1  0
 23 30  1  0
 24  1  1  0
 25 18  2  0
 26 35  1  0
 27 17  1  0
 28 22  1  0
 29 25  1  0
 30 24  1  0
  2 31  1  0
 32  7  2  0
 33 31  1  0
 34 19  2  0
 35 36  1  0
 36 20  1  0
 16 37  1  6
 38 19  1  0
 26 39  1  1
 12 40  1  1
 29 41  1  6
 11 42  1  1
 13 43  1  1
 14 44  1  6
 15 45  1  6
 46 26  1  0
 21 47  1  6
 23 48  1  1
 22 49  1  1
 24 50  1  1
 27 51  1  6
 52 40  1  0
 53 42  1  0
 54 46  1  0
  8 23  1  0
  2 29  1  0
 15 33  1  0
 27 26  1  0
  6 21  1  0
 20 55  1  6
  9 56  1  6
  8 57  1  1
  6 58  1  1
M  END
> <chembl_id>
CHEMBL2104423

> <chembl_pref_name>
NARASIN

$$$$

     RDKit          2D

 22 25  0  0  0  0  0  0  0  0999 V2000
   -2.9625    0.0083    0.0000 N   0  0  0  0  0  0  0  0  0  0  0  0
   -0.1875   -0.6167    0.0000 C   0  0  0  0  0  0  0  0  0  0  0  0
   -0.1875    0.6208    0.0000 C   0  0  0  0  0  0  0  0  0  0  0  0
   -2.4125   -1.1375    0.0000 C   0  0  0  0  0  0  0  0  0  0  0  0
   -2.4125    1.1458    0.0000 C   0  0  0  0  0  0  0  0  0  0  0  0
   -1.1750   -1.4167    0.0000 C   0  0  0  0  0  0  0  0  0  0  0  0
   -1.1875    1.4250    0.0000 C   0  0  0  0  0  0  0  0  0  0  0  0
    0.8125   -1.4375    0.0000 C   0  0  0  0  0  0  0  0  0  0  0  0
    0.8250    1.4125    0.0000 C   0  0  0  0  0  0  0  0  0  0  0  0
    2.6625   -0.0167    0.0000 N   0  0  0  0  0  0  0  0  0  0  0  0
    2.0167    1.1000    0.0000 C   0  0  0  0  0  0  0  0  0  0  0  0
    2.0667   -1.1667    0.0000 C   0  0  0  0  0  0  0  0  0  0  0  0
   -3.9208    0.0083    0.0000 C   0  0  0  0  0  0  0  0  0  0  0  0
   -3.2958   -2.0792    0.0000 C   0  0  0  0  0  0  0  0  0  0  0  0
   -3.2958    2.1000    0.0000 C   0  0  0  0  0  0  0  0  0  0  0  0
   -0.8333    2.6458    0.0000 C   0  0  0  0  0  0  0  0  0  0  0  0
   -0.8000   -2.6500    0.0000 C   0  0  0  0  0  0  0  0  0  0  0  0
    3.9167   -0.0167    0.0000 C   0  0  0  0  0  0  0  0  0  0  0  0
   -1.6500    3.5958    0.0000 C   0  0  0  0  0  0  0  0  0  0  0  0
   -2.9083    3.3208    0.0000 C   0  0  0  0  0  0  0  0  0  0  0  0
   -1.6833   -3.5875    0.0000 C   0  0  0  0  0  0  0  0  0  0  0  0
   -2.9375   -3.2917    0.0000 C   0  0  0  0  0  0  0  0  0  0  0  0
  2  6  1  0
  3  7  1  0
  4  1  1  0
  5  1  1  0
  6  4  2  0
  7  5  2  0
  8  2  1  0
  9  3  1  0
 10 11  1  0
 11  9  1  0
 12  8  1  0
 13  1  1  0
 14  4  1  0
 15  5  1  0
 16  7  1  0
 17  6  1  0
 18 10  1  0
 19 20  1  0
 20 15  2  0
 21 22  1  0
 22 14  2  0
  3  2  2  0
 16 19  2  0
 17 21  2  0
 12 10  1  0
M  END
> <chembl_id>
CHEMBL2104244

> <chembl_pref_name>
ERIZEPINE

$$$$

     RDKit          2D

 27 29  0  0  1  0  0  0  0  0999 V2000
    0.5167    1.0000    0.0000 C   0  0  0  0  0  0  0  0  0  0  0  0
   -1.3958    1.4708    0.0000 C   0  0  0  0  0  0  0  0  0  0  0  0
   -0.5708    0.6833    0.0000 C   0  0  0  0  0  0  0  0  0  0  0  0
    0.7875    2.1083    0.0000 C   0  0  0  0  0  0  0  0  0  0  0  0
   -1.1333    2.5708    0.0000 C   0  0  0  0  0  0  0  0  0  0  0  0
    1.3375    0.2208    0.0000 C   0  0  0  0  0  0  0  0  0  0  0  0
   -0.0375    2.8958    0.0000 N   0  0  0  0  0  0  0  0  0  0  0  0
   -1.3625   -0.1417    0.0000 C   0  0  0  0  0  0  0  0  0  0  0  0
   -2.5250    1.3458    0.0000 C   0  0  0  0  0  0  0  0  0  0  0  0
   -3.0875    0.3583    0.0000 N   0  0  0  0  0  0  0  0  0  0  0  0
   -1.0375   -1.2292    0.0000 C   0  0  0  0  0  0  0  0  0  0  0  0
   -4.2083    0.5833    0.0000 N   0  0  0  0  0  0  0  0  0  0  0  0
   -3.2958    2.1833    0.0000 O   0  0  0  0  0  0  0  0  0  0  0  0
    2.4292    0.5375    0.0000 O   0  0  0  0  0  0  0  0  0  0  0  0
   -4.3333    1.7125    0.0000 C   0  0  0  0  0  0  0  0  0  0  0  0
    1.0750   -0.8875    0.0000 O   0  0  0  0  0  0  0  0  0  0  0  0
   -1.8208   -2.0542    0.0000 C   0  0  0  0  0  0  0  0  0  0  0  0
    0.0667   -1.5000    0.0000 Cl  0  0  0  0  0  0  0  0  0  0  0  0
   -2.4625    0.1250    0.0000 C   0  0  0  0  0  0  0  0  0  0  0  0
   -1.9583    3.3583    0.0000 C   0  0  0  0  0  0  0  0  0  0  0  0
    1.8750    2.4250    0.0000 C   0  0  0  0  0  0  0  0  0  0  0  0
   -1.5000   -3.1417    0.0000 Cl  0  0  0  0  0  0  0  0  0  0  0  0
    3.2542   -0.2417    0.0000 C   0  0  0  0  0  0  0  0  0  0  0  0
   -3.2500   -0.6917    0.0000 C   0  0  0  0  0  0  0  0  0  0  0  0
   -2.9250   -1.7792    0.0000 C   0  0  0  0  0  0  0  0  0  0  0  0
    4.3417    0.0750    0.0000 C   0  0  0  0  0  0  0  0  0  0  0  0
    2.9792   -1.3500    0.0000 C   0  0  0  0  0  0  0  0  0  0  0  0
  2  3  1  0
  3  1  1  0
  4  1  2  0
  5  7  1  0
  6  1  1  0
  7  4  1  0
  3  8  1  1
  9  2  1  0
 10  9  2  0
 11  8  1  0
 12 10  1  0
 13  9  1  0
 14  6  1  0
 15 13  1  0
 16  6  2  0
 17 11  2  0
 18 11  1  0
 19  8  2  0
 20  5  1  0
 21  4  1  0
 22 17  1  0
 23 14  1  0
 24 19  1  0
 25 24  2  0
 26 23  1  0
 27 23  1  0
  2  5  2  0
 17 25  1  0
 12 15  2  0
M  END
> <chembl_id>
CHEMBL2104195

> <chembl_pref_name>
ELNADIPINE

$$$$

     RDKit          2D

 23 24  0  0  0  0  0  0  0  0999 V2000
    2.8792    0.0000    0.0000 Cl  0  0  0  0  0  0  0  0  0  0  0  0
    0.1667   -0.3917    0.0000 N   0  0  0  0  0  0  0  0  0  0  0  0
   -1.0833   -0.6792    0.0000 C   0  0  0  0  0  0  0  0  0  0  0  0
   -1.0958    2.2083    0.0000 N   0  0  0  0  0  0  0  0  0  0  0  0
   -2.0833    0.1000    0.0000 C   0  0  0  0  0  0  0  0  0  0  0  0
   -2.0833    1.3958    0.0000 C   0  0  0  0  0  0  0  0  0  0  0  0
    0.7042    0.7625    0.0000 C   0  0  0  0  0  0  0  0  0  0  0  0
    0.1542    1.8958    0.0000 C   0  0  0  0  0  0  0  0  0  0  0  0
    0.9875   -1.4042    0.0000 C   0  0  0  0  0  0  0  0  0  0  0  0
   -1.3708   -1.9292    0.0000 O   0  0  0  0  0  0  0  0  0  0  0  0
    2.2542   -1.1917    0.0000 C   0  0  0  0  0  0  0  0  0  0  0  0
   -1.4000    3.4625    0.0000 C   0  0  0  0  0  0  0  0  0  0  0  0
    3.0542   -2.2042    0.0000 N   0  0  0  0  0  0  0  0  0  0  0  0
   -3.2250   -0.5500    0.0000 C   0  0  0  0  0  0  0  0  0  0  0  0
   -3.2208    2.0583    0.0000 C   0  0  0  0  0  0  0  0  0  0  0  0
    2.0292    0.6583    0.0000 C   0  0  0  0  0  0  0  0  0  0  0  0
    0.8792    3.0083    0.0000 C   0  0  0  0  0  0  0  0  0  0  0  0
    4.3417   -2.0917    0.0000 C   0  0  0  0  0  0  0  0  0  0  0  0
    2.7417   -3.4542    0.0000 C   0  0  0  0  0  0  0  0  0  0  0  0
   -4.3458    0.1000    0.0000 C   0  0  0  0  0  0  0  0  0  0  0  0
    2.1917    2.9125    0.0000 C   0  0  0  0  0  0  0  0  0  0  0  0
   -4.3458    1.3958    0.0000 C   0  0  0  0  0  0  0  0  0  0  0  0
    2.7542    1.7375    0.0000 C   0  0  0  0  0  0  0  0  0  0  0  0
  3  2  1  0
  4  8  1  0
  5  3  1  0
  6  5  2  0
  7  2  1  0
  8  7  2  0
  9  2  1  0
 10  3  2  0
 11  9  1  0
 12  4  1  0
 13 11  1  0
 14  5  1  0
 15  6  1  0
 16  7  1  0
 17  8  1  0
 18 13  1  0
 19 13  1  0
 20 14  2  0
 21 23  1  0
 22 20  1  0
 23 16  2  0
  4  6  1  0
 17 21  2  0
 15 22  2  0
M  END
> <chembl_id>
CHEMBL2104287

> <chembl_pref_name>
DIBENZEPIN HYDROCHLORIDE

$$$$

     RDKit          2D

 32 33  0  0  0  0  0  0  0  0999 V2000
   -2.2083    0.6250    0.0000 C   0  0  0  0  0  0  0  0  0  0  0  0
   -0.8958    0.6250    0.0000 C   0  0  0  0  0  0  0  0  0  0  0  0
   -1.5458    0.2333    0.0000 C   0  0  0  0  0  0  0  0  0  0  0  0
   -0.8958    1.4000    0.0000 C   0  0  0  0  0  0  0  0  0  0  0  0
   -2.2083    1.4000    0.0000 C   0  0  0  0  0  0  0  0  0  0  0  0
   -1.5458    1.7833    0.0000 N   0  0  0  0  0  0  0  0  0  0  0  0
   -1.5458   -0.9625    0.0000 C   0  0  0  0  0  0  0  0  0  0  0  0
   -3.0625    0.4458    0.0000 C   0  0  0  0  0  0  0  0  0  0  0  0
   -0.2083    0.2083    0.0000 C   0  0  0  0  0  0  0  0  0  0  0  0
   -0.8750   -1.3667    0.0000 C   0  0  0  0  0  0  0  0  0  0  0  0
   -0.8750   -2.1375    0.0000 C   0  0  0  0  0  0  0  0  0  0  0  0
   -0.2083   -0.5250    0.0000 O   0  0  0  0  0  0  0  0  0  0  0  0
   -3.3458   -0.2792    0.0000 O   0  0  0  0  0  0  0  0  0  0  0  0
   -0.2208   -1.2792    0.0000 Cl  0  0  0  0  0  0  0  0  0  0  0  0
   -0.2708    1.9083    0.0000 C   0  0  0  0  0  0  0  0  0  0  0  0
   -3.6583    0.9583    0.0000 O   0  0  0  0  0  0  0  0  0  0  0  0
    0.4750    0.5833    0.0000 O   0  0  0  0  0  0  0  0  0  0  0  0
   -2.2000   -1.3417    0.0000 C   0  0  0  0  0  0  0  0  0  0  0  0
   -2.9125    1.7833    0.0000 C   0  0  0  0  0  0  0  0  0  0  0  0
   -0.2208   -2.5167    0.0000 Cl  0  0  0  0  0  0  0  0  0  0  0  0
    4.2792   -0.0625    0.0000 N   0  0  0  0  0  0  0  0  0  0  0  0
    0.7375    1.9083    0.0000 O   0  0  0  0  0  0  0  0  0  0  0  0
   -2.2000   -2.1375    0.0000 C   0  0  0  0  0  0  0  0  0  0  0  0
    2.3000    0.5833    0.0000 O   0  0  0  0  0  0  0  0  0  0  0  0
   -1.5458   -2.5375    0.0000 C   0  0  0  0  0  0  0  0  0  0  0  0
    3.5042   -0.0875    0.0000 C   0  0  0  0  0  0  0  0  0  0  0  0
    1.1042    0.1750    0.0000 C   0  0  0  0  0  0  0  0  0  0  0  0
    3.0917    0.5833    0.0000 C   0  0  0  0  0  0  0  0  0  0  0  0
    1.1542    1.2458    0.0000 C   0  0  0  0  0  0  0  0  0  0  0  0
    1.9042    1.2458    0.0000 C   0  0  0  0  0  0  0  0  0  0  0  0
   -4.3458    0.9583    0.0000 C   0  0  0  0  0  0  0  0  0  0  0  0
    1.1042   -0.5167    0.0000 C   0  0  0  0  0  0  0  0  0  0  0  0
  2  3  1  0
  3  1  1  0
  4  6  1  0
  5  1  2  0
  6  5  1  0
  7  3  1  0
  8  1  1  0
  9  2  1  0
 10  7  1  0
 11 10  2  0
 12  9  2  0
 13  8  2  0
 14 10  1  0
 15  4  1  0
 16  8  1  0
 17  9  1  0
 18  7  2  0
 19  5  1  0
 20 11  1  0
 21 26  1  0
 22 15  1  0
 23 18  1  0
 24 30  1  0
 25 23  2  0
 26 28  1  0
 27 17  1  0
 28 24  1  0
 29 22  1  0
 30 29  1  0
 31 16  1  0
 32 27  1  0
  2  4  2  0
 11 25  1  0
M  END
> <chembl_id>
CHEMBL2104881

> <chembl_pref_name>
OLRADIPINE

$$$$

     RDKit          2D

 21 24  0  0  0  0  0  0  0  0999 V2000
   -0.2458    0.6125    0.0000 C   0  0  0  0  0  0  0  0  0  0  0  0
   -0.2458   -0.6167    0.0000 C   0  0  0  0  0  0  0  0  0  0  0  0
   -3.0458    0.0208    0.0000 O   0  0  0  0  0  0  0  0  0  0  0  0
   -1.2458   -1.4042    0.0000 C   0  0  0  0  0  0  0  0  0  0  0  0
   -1.2375    1.4333    0.0000 C   0  0  0  0  0  0  0  0  0  0  0  0
   -2.4958   -1.1250    0.0000 C   0  0  0  0  0  0  0  0  0  0  0  0
   -2.4458    1.1958    0.0000 C   0  0  0  0  0  0  0  0  0  0  0  0
    0.7417   -1.4375    0.0000 C   0  0  0  0  0  0  0  0  0  0  0  0
    0.7417    1.4000    0.0000 C   0  0  0  0  0  0  0  0  0  0  0  0
    2.5500   -0.0500    0.0000 N   0  0  0  0  0  0  0  0  0  0  0  0
    1.9667    1.1208    0.0000 C   0  0  0  0  0  0  0  0  0  0  0  0
    1.9542   -1.1667    0.0000 C   0  0  0  0  0  0  0  0  0  0  0  0
   -0.8625   -2.6417    0.0000 C   0  0  0  0  0  0  0  0  0  0  0  0
   -0.8125    2.6500    0.0000 C   0  0  0  0  0  0  0  0  0  0  0  0
   -3.3000    2.1750    0.0000 C   0  0  0  0  0  0  0  0  0  0  0  0
   -3.4000   -2.0542    0.0000 C   0  0  0  0  0  0  0  0  0  0  0  0
    3.4000   -0.0500    0.0000 C   0  0  0  0  0  0  0  0  0  0  0  0
   -1.7625   -3.5875    0.0000 C   0  0  0  0  0  0  0  0  0  0  0  0
   -1.6708    3.5958    0.0000 C   0  0  0  0  0  0  0  0  0  0  0  0
   -2.8750    3.3583    0.0000 C   0  0  0  0  0  0  0  0  0  0  0  0
   -3.0625   -3.3042    0.0000 C   0  0  0  0  0  0  0  0  0  0  0  0
  2  1  2  0
  3  7  1  0
  4  2  1  0
  5  1  1  0
  6  4  2  0
  7  5  2  0
  8  2  1  0
  9  1  1  0
 10 11  1  0
 11  9  1  0
 12  8  1  0
 13  4  1  0
 14  5  1  0
 15  7  1  0
 16  6  1  0
 17 10  1  0
 18 13  2  0
 19 14  2  0
 20 19  1  0
 21 18  1  0
 12 10  1  0
  6  3  1  0
 15 20  2  0
 16 21  2  0
M  END
> <chembl_id>
CHEMBL2104755

> <chembl_pref_name>
MAROXEPIN

$$$$

     RDKit          2D

 34 38  0  0  1  0  0  0  0  0999 V2000
   -0.0083   -0.9125    0.0000 C   0  0  0  0  0  0  0  0  0  0  0  0
    1.6917    0.0833    0.0000 C   0  0  0  0  0  0  0  0  0  0  0  0
   -0.8625   -1.4042    0.0000 C   0  0  0  0  0  0  0  0  0  0  0  0
    0.8375   -1.4042    0.0000 C   0  0  0  0  0  0  0  0  0  0  0  0
   -0.0083    0.0833    0.0000 C   0  0  0  0  0  0  0  0  0  0  0  0
    1.6917   -0.9125    0.0000 C   0  0  0  0  0  0  0  0  0  0  0  0
   -0.8625   -2.4042    0.0000 C   0  0  0  0  0  0  0  0  0  0  0  0
    0.8375    0.5833    0.0000 C   0  0  0  0  0  0  0  0  0  0  0  0
    2.6292    0.4083    0.0000 C   0  0  0  0  0  0  0  0  0  0  0  0
   -1.7083   -2.9042    0.0000 C   0  0  0  0  0  0  0  0  0  0  0  0
    0.8375   -2.4042    0.0000 C   0  0  0  0  0  0  0  0  0  0  0  0
   -1.7083   -0.9125    0.0000 C   0  0  0  0  0  0  0  0  0  0  0  0
    2.6542   -1.2042    0.0000 C   0  0  0  0  0  0  0  0  0  0  0  0
   -0.8875    0.5833    0.0000 C   0  0  0  0  0  0  0  0  0  0  0  0
   -0.0083   -2.9042    0.0000 C   0  0  0  0  0  0  0  0  0  0  0  0
   -2.5625   -2.4042    0.0000 C   0  0  0  0  0  0  0  0  0  0  0  0
   -2.5875    1.6083    0.0000 C   0  0  0  0  0  0  0  0  0  0  0  0
    3.2167   -0.4125    0.0000 C   0  0  0  0  0  0  0  0  0  0  0  0
    3.6250    0.5583    0.0000 C   0  0  0  0  0  0  0  0  0  0  0  0
   -3.4708    2.1083    0.0000 N   0  0  0  0  0  0  0  0  0  0  0  0
   -1.7458    0.0833    0.0000 C   0  0  0  0  0  0  0  0  0  0  0  0
   -0.8875    1.6083    0.0000 C   0  0  0  0  0  0  0  0  0  0  0  0
   -1.7458    2.1083    0.0000 C   0  0  0  0  0  0  0  0  0  0  0  0
   -2.5875    0.5833    0.0000 C   0  0  0  0  0  0  0  0  0  0  0  0
   -3.3958   -2.9167    0.0000 O   0  0  0  0  0  0  0  0  0  0  0  0
    4.3417    1.1833    0.0000 C   0  0  0  0  0  0  0  0  0  0  0  0
   -2.5750   -1.3917    0.0000 C   0  0  0  0  0  0  0  0  0  0  0  0
    2.6417    1.3750    0.0000 O   0  0  0  0  0  0  0  0  0  0  0  0
    1.6917    1.1125    0.0000 C   0  0  0  0  0  0  0  0  0  0  0  0
   -4.3458    1.6083    0.0000 C   0  0  0  0  0  0  0  0  0  0  0  0
   -3.4708    3.1083    0.0000 C   0  0  0  0  0  0  0  0  0  0  0  0
    4.3167    2.0083    0.0000 C   0  0  0  0  0  0  0  0  0  0  0  0
    0.8375   -0.4125    0.0000 H   0  0  0  0  0  0  0  0  0  0  0  0
    2.0042   -1.9375    0.0000 H   0  0  0  0  0  0  0  0  0  0  0  0
  2  8  1  0
  3  1  2  0
  4  1  1  0
  5  1  1  0
  6  4  1  0
  7  3  1  0
  8  5  1  0
  9  2  1  0
 10  7  2  0
 11  4  1  0
 12  3  1  0
 13  6  1  0
  5 14  1  1
 15 11  1  0
 16 27  1  0
 17 23  2  0
 18 13  1  0
  9 19  1  0
 20 17  1  0
 21 14  1  0
 22 14  2  0
 23 22  1  0
 24 21  2  0
 25 16  2  0
 26 19  2  0
 27 12  1  0
  9 28  1  1
  2 29  1  1
 30 20  1  0
 31 20  1  0
 32 26  1  0
  4 33  1  1
  6 34  1  6
  6  2  1  0
  7 15  1  0
 24 17  1  0
  9 18  1  0
 10 16  1  0
M  END
> <chembl_id>
CHEMBL2103998

> <chembl_pref_name>
AGLEPRISTONE

$$$$

     RDKit          2D

 38 41  0  0  1  0  0  0  0  0999 V2000
   -2.3333    1.0306    0.0000 C   0  0  0  0  0  0  0  0  0  0  0  0
   -0.9113    1.0306    0.0000 C   0  0  0  0  0  0  0  0  0  0  0  0
   -1.6462    0.5535    0.0000 C   0  0  0  0  0  0  0  0  0  0  0  0
   -2.3333    1.8561    0.0000 C   0  0  0  0  0  0  0  0  0  0  0  0
   -0.9113    1.8561    0.0000 C   0  0  0  0  0  0  0  0  0  0  0  0
   -3.0728    1.0258    0.0000 C   0  0  0  0  0  0  0  0  0  0  0  0
   -1.6271    2.2855    0.0000 N   0  0  0  0  0  0  0  0  0  0  0  0
   -1.5753   -0.2867    0.0000 C   0  0  0  0  0  0  0  0  0  0  0  0
   -0.9478   -0.9142    0.0000 C   0  0  0  0  0  0  0  0  0  0  0  0
   -0.2004    0.6393    0.0000 C   0  0  0  0  0  0  0  0  0  0  0  0
   -3.6311    0.5678    0.0000 O   0  0  0  0  0  0  0  0  0  0  0  0
   -0.1346   -0.8096    0.0000 O   0  0  0  0  0  0  0  0  0  0  0  0
   -1.1401   -1.7475    0.0000 C   0  0  0  0  0  0  0  0  0  0  0  0
   -3.5738    1.6986    0.0000 O   0  0  0  0  0  0  0  0  0  0  0  0
   -0.3911   -2.1592    0.0000 O   0  0  0  0  0  0  0  0  0  0  0  0
    0.2298   -1.5991    0.0000 C   0  0  0  0  0  0  0  0  0  0  0  0
   -0.2004   -0.1766    0.0000 O   0  0  0  0  0  0  0  0  0  0  0  0
    1.9373    1.9133    0.0000 N   0  0  0  0  0  0  0  0  0  0  0  0
    0.4915    1.0688    0.0000 O   0  0  0  0  0  0  0  0  0  0  0  0
    1.9373    1.1117    0.0000 C   0  0  0  0  0  0  0  0  0  0  0  0
   -2.3817   -0.6072    0.0000 C   0  0  0  0  0  0  0  0  0  0  0  0
   -0.2004    2.2569    0.0000 C   0  0  0  0  0  0  0  0  0  0  0  0
   -3.0156    2.3285    0.0000 C   0  0  0  0  0  0  0  0  0  0  0  0
    2.6960    0.7825    0.0000 C   0  0  0  0  0  0  0  0  0  0  0  0
    4.1131    0.0238    0.0000 C   0  0  0  0  0  0  0  0  0  0  0  0
    4.9147   -0.3340    0.0000 F   0  0  0  0  0  0  0  0  0  0  0  0
    4.1131    0.7825    0.0000 C   0  0  0  0  0  0  0  0  0  0  0  0
    3.4498   -0.4056    0.0000 C   0  0  0  0  0  0  0  0  0  0  0  0
    3.3401    1.1976    0.0000 C   0  0  0  0  0  0  0  0  0  0  0  0
    2.6960    0.0524    0.0000 C   0  0  0  0  0  0  0  0  0  0  0  0
    0.4915    1.8704    0.0000 C   0  0  0  0  0  0  0  0  0  0  0  0
   -4.3755    0.8970    0.0000 C   0  0  0  0  0  0  0  0  0  0  0  0
   -2.5133   -1.3866    0.0000 C   0  0  0  0  0  0  0  0  0  0  0  0
   -1.9363   -1.9635    0.0000 C   0  0  0  0  0  0  0  0  0  0  0  0
    1.1595    2.3142    0.0000 C   0  0  0  0  0  0  0  0  0  0  0  0
    2.5814    2.4144    0.0000 C   0  0  0  0  0  0  0  0  0  0  0  0
   -4.3755    1.6462    0.0000 C   0  0  0  0  0  0  0  0  0  0  0  0
   -4.9767    0.5010    0.0000 C   0  0  0  0  0  0  0  0  0  0  0  0
  2  3  1  0
  3  1  1  0
  4  1  2  0
  5  7  1  0
  6  1  1  0
  7  4  1  0
  3  8  1  0
  9  8  2  0
 10  2  1  0
 11  6  1  0
 12  9  1  0
 13  9  1  0
 14  6  2  0
 15 13  1  0
 16 12  1  0
 17 10  2  0
 18 35  1  0
 19 10  1  0
 20 18  1  0
 21  8  1  0
 22  5  1  0
 23  4  1  0
 24 20  1  0
 25 28  1  0
 26 25  1  0
 27 29  1  0
 28 30  2  0
 29 24  2  0
 30 24  1  0
 31 19  1  0
 32 11  1  0
 33 21  2  0
 34 33  1  0
 35 31  1  0
 36 18  1  0
 37 32  1  0
 38 32  1  0
  2  5  2  0
 13 34  2  0
 15 16  1  0
 27 25  2  0
M  END
> <chembl_id>
CHEMBL2218890

> <chembl_pref_name>
ELGODIPINE

$$$$

     RDKit          2D

 44 48  0  0  0  0  0  0  0  0999 V2000
   14.9349   -9.5492    0.0000 N   0  0  0  0  0  0  0  0  0  0  0  0
   14.2121   -9.9425    0.0000 C   0  0  0  0  0  0  0  0  0  0  0  0
   14.1890  -10.7670    0.0000 C   0  0  0  0  0  0  0  0  0  0  0  0
   14.8929  -11.1983    0.0000 N   0  0  0  0  0  0  0  0  0  0  0  0
   15.6199  -10.8049    0.0000 C   0  0  0  0  0  0  0  0  0  0  0  0
   15.6388   -9.9804    0.0000 C   0  0  0  0  0  0  0  0  0  0  0  0
   14.9582   -8.7247    0.0000 C   0  0  0  0  0  0  0  0  0  0  0  0
   15.6809   -8.3313    0.0000 O   0  0  0  0  0  0  0  0  0  0  0  0
   14.2543   -8.2935    0.0000 N   0  0  0  0  0  0  0  0  0  0  0  0
   14.2733   -7.4689    0.0000 C   0  0  0  0  0  0  0  0  0  0  0  0
   13.5694   -7.0377    0.0000 C   0  0  0  0  0  0  0  0  0  0  0  0
   13.5926   -6.2132    0.0000 C   0  0  0  0  0  0  0  0  0  0  0  0
   11.8595   -8.3122    0.0000 N   0  0  0  0  0  0  0  0  0  0  0  0
   12.6777   -8.2061    0.0000 C   0  0  0  0  0  0  0  0  0  0  0  0
   12.8251   -7.3936    0.0000 C   0  0  0  0  0  0  0  0  0  0  0  0
   12.1010   -7.0025    0.0000 C   0  0  0  0  0  0  0  0  0  0  0  0
   11.9081   -6.1999    0.0000 C   0  0  0  0  0  0  0  0  0  0  0  0
   11.1176   -5.9669    0.0000 C   0  0  0  0  0  0  0  0  0  0  0  0
   10.5160   -6.5365    0.0000 C   0  0  0  0  0  0  0  0  0  0  0  0
   10.7131   -7.3349    0.0000 C   0  0  0  0  0  0  0  0  0  0  0  0
   11.5036   -7.5721    0.0000 C   0  0  0  0  0  0  0  0  0  0  0  0
   14.9961   -7.0757    0.0000 C   0  0  0  0  0  0  0  0  0  0  0  0
   15.7000   -7.5068    0.0000 O   0  0  0  0  0  0  0  0  0  0  0  0
   15.0192   -6.2511    0.0000 N   0  0  0  0  0  0  0  0  0  0  0  0
   15.7421   -5.8536    0.0000 C   0  0  0  0  0  0  0  0  0  0  0  0
   15.7653   -5.0291    0.0000 C   0  0  0  0  0  0  0  0  0  0  0  0
   16.4881   -4.6358    0.0000 C   0  0  0  0  0  0  0  0  0  0  0  0
   17.1920   -5.0669    0.0000 C   0  0  0  0  0  0  0  0  0  0  0  0
   17.1730   -5.8915    0.0000 C   0  0  0  0  0  0  0  0  0  0  0  0
   16.4460   -6.2849    0.0000 C   0  0  0  0  0  0  0  0  0  0  0  0
   15.0614   -4.6021    0.0000 O   0  0  0  0  0  0  0  0  0  0  0  0
   15.0804   -3.7776    0.0000 C   0  0  0  0  0  0  0  0  0  0  0  0
   14.3765   -3.3463    0.0000 C   0  0  0  0  0  0  0  0  0  0  0  0
   17.8769   -6.3227    0.0000 C   0  0  0  0  0  0  0  0  0  0  0  0
   18.5998   -5.9293    0.0000 N   0  0  0  0  0  0  0  0  0  0  0  0
   18.6229   -5.1048    0.0000 C   0  0  0  0  0  0  0  0  0  0  0  0
   19.3037   -6.3606    0.0000 C   0  0  0  0  0  0  0  0  0  0  0  0
   14.8722  -12.0188    0.0000 C   0  0  0  0  0  0  0  0  0  0  0  0
   14.1454  -12.4113    0.0000 C   0  0  0  0  0  0  0  0  0  0  0  0
   14.1228  -13.2351    0.0000 C   0  0  0  0  0  0  0  0  0  0  0  0
   14.8264  -13.6675    0.0000 C   0  0  0  0  0  0  0  0  0  0  0  0
   15.5541  -13.2700    0.0000 C   0  0  0  0  0  0  0  0  0  0  0  0
   15.5731  -12.4475    0.0000 C   0  0  0  0  0  0  0  0  0  0  0  0
   14.8053  -14.4921    0.0000 F   0  0  0  0  0  0  0  0  0  0  0  0
  1  2  1  0
  2  3  1  0
  3  4  1  0
  4  5  1  0
  5  6  1  0
  1  6  1  0
  7  8  2  0
  7  9  1  0
  1  7  1  0
 10 11  1  0
 11 12  1  6
 13 14  1  0
 14 15  2  0
 15 16  1  0
 16 17  1  0
 17 18  2  0
 18 19  1  0
 19 20  2  0
 20 21  1  0
 13 21  1  0
 16 21  2  0
 11 15  1  0
 22 23  2  0
 25 26  1  0
 26 27  2  0
 27 28  1  0
 28 29  2  0
 29 30  1  0
 25 30  2  0
 32 33  1  0
 31 32  1  0
 26 31  1  0
 35 36  1  0
 35 37  1  0
 34 35  1  0
 29 34  1  0
 24 25  1  0
 22 24  1  0
 10 22  1  0
 10  9  1  6
 38 39  2  0
 39 40  1  0
 40 41  2  0
 41 42  1  0
 42 43  2  0
 43 38  1  0
  4 38  1  0
 41 44  1  0
M  END
> <chembl_id>
CHEMBL4205606

> <chembl_pref_name>
None

$$$$

     RDKit          2D

 22 25  0  0  0  0  0  0  0  0999 V2000
    0.5000    0.4083    0.0000 C   0  0  0  0  0  0  0  0  0  0  0  0
    0.5000   -0.8125    0.0000 C   0  0  0  0  0  0  0  0  0  0  0  0
   -0.4458    1.1250    0.0000 N   0  0  0  0  0  0  0  0  0  0  0  0
   -0.3750   -1.5542    0.0000 C   0  0  0  0  0  0  0  0  0  0  0  0
    1.4792    1.0833    0.0000 N   0  0  0  0  0  0  0  0  0  0  0  0
   -1.5833    0.8625    0.0000 C   0  0  0  0  0  0  0  0  0  0  0  0
    0.0500   -2.6667    0.0000 S   0  0  0  0  0  0  0  0  0  0  0  0
   -2.0875   -0.2375    0.0000 C   0  0  0  0  0  0  0  0  0  0  0  0
   -1.5708   -1.2875    0.0000 C   0  0  0  0  0  0  0  0  0  0  0  0
    1.5125   -1.4375    0.0000 C   0  0  0  0  0  0  0  0  0  0  0  0
   -2.2333    1.8333    0.0000 C   0  0  0  0  0  0  0  0  0  0  0  0
    3.4792    2.3083    0.0000 N   0  0  0  0  0  0  0  0  0  0  0  0
    1.2292   -2.5500    0.0000 C   0  0  0  0  0  0  0  0  0  0  0  0
    1.4792    2.1500    0.0000 C   0  0  0  0  0  0  0  0  0  0  0  0
    2.5542    0.6458    0.0000 C   0  0  0  0  0  0  0  0  0  0  0  0
   -3.2833   -0.3417    0.0000 C   0  0  0  0  0  0  0  0  0  0  0  0
   -3.4583    1.7208    0.0000 C   0  0  0  0  0  0  0  0  0  0  0  0
    2.4375    2.8000    0.0000 C   0  0  0  0  0  0  0  0  0  0  0  0
    3.4792    1.2708    0.0000 C   0  0  0  0  0  0  0  0  0  0  0  0
   -3.9750    0.6458    0.0000 C   0  0  0  0  0  0  0  0  0  0  0  0
   -4.1208    2.7208    0.0000 Cl  0  0  0  0  0  0  0  0  0  0  0  0
    4.3375    2.9625    0.0000 C   0  0  0  0  0  0  0  0  0  0  0  0
  2  1  1  0
  3  1  2  0
  4  2  2  0
  5  1  1  0
  6  3  1  0
  7  4  1  0
  8  6  2  0
  9  4  1  0
 10  2  1  0
 11  6  1  0
 12 19  1  0
 13 10  2  0
 14  5  1  0
 15  5  1  0
 16  8  1  0
 17 11  2  0
 18 14  1  0
 19 15  1  0
 20 17  1  0
 21 17  1  0
 22 12  1  0
 18 12  1  0
  7 13  1  0
  9  8  1  0
 16 20  2  0
M  END
> <chembl_id>
CHEMBL2105484

> <chembl_pref_name>
TILOZEPINE

$$$$

     RDKit          2D

 58 63  0  0  1  0  0  0  0  0999 V2000
    1.7667   -0.8042    0.0000 C   0  0  0  0  0  0  0  0  0  0  0  0
    1.2917   -1.0875    0.0000 C   0  0  0  0  0  0  0  0  0  0  0  0
    1.2917   -1.6917    0.0000 C   0  0  0  0  0  0  0  0  0  0  0  0
   -3.8958    1.7708    0.0000 S   0  0  0  0  0  0  0  0  0  0  0  0
    1.7667   -0.2375    0.0000 C   0  0  0  0  0  0  0  0  0  0  0  0
    2.2792   -1.0875    0.0000 C   0  0  0  0  0  0  0  0  0  0  0  0
    2.6792    1.4333    0.0000 C   0  0  0  0  0  0  0  0  0  0  0  0
    2.2792   -1.6917    0.0000 C   0  0  0  0  0  0  0  0  0  0  0  0
    0.7292   -1.8250    0.0000 O   0  0  0  0  0  0  0  0  0  0  0  0
    0.6917   -0.9292    0.0000 C   0  0  0  0  0  0  0  0  0  0  0  0
    1.7667   -1.9667    0.0000 C   0  0  0  0  0  0  0  0  0  0  0  0
    2.1875   -0.0292    0.0000 O   0  0  0  0  0  0  0  0  0  0  0  0
    3.1917    1.0833    0.0000 O   0  0  0  0  0  0  0  0  0  0  0  0
   -3.4000    1.4625    0.0000 N   0  0  0  0  0  0  0  0  0  0  0  0
    2.6917    0.8333    0.0000 C   0  0  0  0  0  0  0  0  0  0  0  0
    2.1542    1.6958    0.0000 O   0  0  0  0  0  0  0  0  0  0  0  0
    2.1875    0.5333    0.0000 C   0  0  0  0  0  0  0  0  0  0  0  0
    0.1375    1.6625    0.0000 C   0  0  0  0  0  0  0  0  0  0  0  0
    0.6417    1.3583    0.0000 C   0  0  0  0  0  0  0  0  0  0  0  0
    0.3250   -1.3875    0.0000 C   0  0  0  0  0  0  0  0  0  0  0  0
   -0.3708    1.3583    0.0000 C   0  0  0  0  0  0  0  0  0  0  0  0
   -3.5833    2.2458    0.0000 O   0  0  0  0  0  0  0  0  0  0  0  0
   -4.2250    1.2833    0.0000 O   0  0  0  0  0  0  0  0  0  0  0  0
    3.7167    1.3958    0.0000 C   0  0  0  0  0  0  0  0  0  0  0  0
   -2.8833    1.7333    0.0000 C   0  0  0  0  0  0  0  0  0  0  0  0
    0.6917   -0.4292    0.0000 C   0  0  0  0  0  0  0  0  0  0  0  0
    1.2917    0.0958    0.0000 O   0  0  0  0  0  0  0  0  0  0  0  0
    0.1375   -0.0917    0.0000 C   0  0  0  0  0  0  0  0  0  0  0  0
    1.6750    0.8125    0.0000 C   0  0  0  0  0  0  0  0  0  0  0  0
    1.6750    1.4000    0.0000 C   0  0  0  0  0  0  0  0  0  0  0  0
    0.1292    0.4833    0.0000 C   0  0  0  0  0  0  0  0  0  0  0  0
    1.2250   -0.4500    0.0000 O   0  0  0  0  0  0  0  0  0  0  0  0
    2.7292    1.9958    0.0000 C   0  0  0  0  0  0  0  0  0  0  0  0
   -0.3708    0.7833    0.0000 C   0  0  0  0  0  0  0  0  0  0  0  0
    3.7167    1.8708    0.0000 C   0  0  0  0  0  0  0  0  0  0  0  0
   -2.8708    2.3208    0.0000 C   0  0  0  0  0  0  0  0  0  0  0  0
   -2.3625    1.4208    0.0000 C   0  0  0  0  0  0  0  0  0  0  0  0
    3.2042    2.2208    0.0000 C   0  0  0  0  0  0  0  0  0  0  0  0
    1.1375    1.6625    0.0000 C   0  0  0  0  0  0  0  0  0  0  0  0
   -4.3458    2.0583    0.0000 C   0  0  0  0  0  0  0  0  0  0  0  0
    1.7667   -2.4792    0.0000 O   0  0  0  0  0  0  0  0  0  0  0  0
   -0.8625    1.6583    0.0000 O   0  0  0  0  0  0  0  0  0  0  0  0
   -1.8333    1.7208    0.0000 C   0  0  0  0  0  0  0  0  0  0  0  0
   -2.3208    2.5958    0.0000 C   0  0  0  0  0  0  0  0  0  0  0  0
   -1.8333    2.2583    0.0000 C   0  0  0  0  0  0  0  0  0  0  0  0
    2.7542   -1.9875    0.0000 C   0  0  0  0  0  0  0  0  0  0  0  0
   -0.8625    2.2375    0.0000 C   0  0  0  0  0  0  0  0  0  0  0  0
   -3.4458    0.8625    0.0000 C   0  0  0  0  0  0  0  0  0  0  0  0
    0.1375    2.1208    0.0000 C   0  0  0  0  0  0  0  0  0  0  0  0
    4.1542    1.0458    0.0000 C   0  0  0  0  0  0  0  0  0  0  0  0
   -1.3125    2.5458    0.0000 C   0  0  0  0  0  0  0  0  0  0  0  0
   -0.8250    0.4208    0.0000 C   0  0  0  0  0  0  0  0  0  0  0  0
    4.3417    2.0500    0.0000 C   0  0  0  0  0  0  0  0  0  0  0  0
    4.1542    0.4833    0.0000 C   0  0  0  0  0  0  0  0  0  0  0  0
    1.6257    2.3988    0.0000 H   0  0  0  0  0  0  0  0  0  0  0  0
    3.0568    0.0390    0.0000 H   0  0  0  0  0  0  0  0  0  0  0  0
    1.1462   -2.6811    0.0000 H   0  0  0  0  0  0  0  0  0  0  0  0
    2.6280   -0.2962    0.0000 H   0  0  0  0  0  0  0  0  0  0  0  0
  2  1  1  0
  3  2  1  0
  4 14  1  0
  1  5  1  0
  6  1  1  0
  7 15  1  1
  8  6  2  0
  9  3  1  0
 10  2  1  0
 11  8  1  0
 12  5  1  0
  7 13  1  0
 14 25  1  0
 15 17  1  0
 16 30  1  0
 17 12  1  0
 18 19  2  0
 19 39  1  0
 20 10  1  0
 21 34  1  0
 22  4  2  0
 23  4  2  0
 24 13  1  0
 25 36  1  0
 26 10  2  0
 27  5  2  0
 28 26  1  0
 29 17  1  0
 30 29  1  0
 31 28  2  0
  2 32  1  6
  7 33  1  0
 34 31  1  0
 35 38  1  0
 36 44  2  0
 37 43  1  0
 38 33  1  0
 30 39  1  0
 40  4  1  0
 11 41  1  1
 21 42  1  1
 43 45  2  0
 44 45  1  0
 45 51  1  0
 46  8  1  0
 47 42  1  0
 48 14  1  0
 49 18  1  0
 24 50  1  1
 51 47  1  0
 34 52  1  6
 35 53  1  6
 54 50  1  0
  3 11  1  0
  9 20  1  0
  7 16  1  0
 21 18  1  0
 24 35  1  0
 37 25  2  0
 30 55  1  6
 17 56  1  6
  3 57  1  6
  1 58  1  1
M  END
> <chembl_id>
CHEMBL2106450

> <chembl_pref_name>
FULADECTIN COMPONENT A4

$$$$

     RDKit          2D

 28 31  0  0  0  0  0  0  0  0999 V2000
   -5.6410    0.9941    0.0000 C   0  0  0  0  0  0  0  0  0  0  0  0
   -6.4660    0.9941    0.0000 C   0  0  0  0  0  0  0  0  0  0  0  0
   -6.8785    0.2797    0.0000 C   0  0  0  0  0  0  0  0  0  0  0  0
   -6.4660   -0.4347    0.0000 C   0  0  0  0  0  0  0  0  0  0  0  0
   -5.6410   -0.4347    0.0000 C   0  0  0  0  0  0  0  0  0  0  0  0
   -5.2285    0.2797    0.0000 C   0  0  0  0  0  0  0  0  0  0  0  0
   -4.4035    1.7086    0.0000 C   0  0  0  0  0  0  0  0  0  0  0  0
   -5.2285    1.7086    0.0000 C   0  0  0  0  0  0  0  0  0  0  0  0
   -4.4035    0.2797    0.0000 C   0  0  0  0  0  0  0  0  0  0  0  0
   -3.9910    0.9942    0.0000 C   0  0  0  0  0  0  0  0  0  0  0  0
   -3.1660    0.9942    0.0000 C   0  0  0  0  0  0  0  0  0  0  0  0
   -3.9910   -0.4347    0.0000 C   0  0  0  0  0  0  0  0  0  0  0  0
   -3.1660   -0.4347    0.0000 C   0  0  0  0  0  0  0  0  0  0  0  0
   -2.7535    0.2797    0.0000 C   0  0  0  0  0  0  0  0  0  0  0  0
   -6.9510   -1.1022    0.0000 O   0  0  0  0  0  0  0  0  0  0  0  0
   -6.5016   -1.7941    0.0000 C   0  0  0  0  0  0  0  0  0  0  0  0
   -6.9510   -2.4860    0.0000 H   0  0  0  0  0  0  0  0  0  0  0  0
   -6.2881   -2.5910    0.0000 H   0  0  0  0  0  0  0  0  0  0  0  0
   -5.7480   -2.1296    0.0000 H   0  0  0  0  0  0  0  0  0  0  0  0
   -4.8529    0.9716    0.0000 C   0  0  0  0  0  0  0  0  0  0  0  0
   -4.2745    2.5235    0.0000 N   0  0  0  0  0  0  0  0  0  0  0  0
   -5.0447    2.2278    0.0000 C   0  0  0  0  0  0  0  0  0  0  0  0
   -3.5417    1.6861    0.0000 H   0  0  0  0  0  0  0  0  0  0  0  0
   -3.7553    3.1646    0.0000 C   0  0  0  0  0  0  0  0  0  0  0  0
   -3.9688    3.9615    0.0000 H   0  0  0  0  0  0  0  0  0  0  0  0
   -3.4596    3.9348    0.0000 H   0  0  0  0  0  0  0  0  0  0  0  0
   -3.0016    3.5002    0.0000 H   0  0  0  0  0  0  0  0  0  0  0  0
   -3.7361    2.1936    0.0000 H   0  0  0  0  0  0  0  0  0  0  0  0
  1  2  2  0
  2  3  1  0
  3  4  2  0
  4  5  1  0
  5  6  2  0
  1  6  1  0
  9 10  1  0
  7 10  1  0
  8  1  1  0
  6  9  1  0
 12 13  1  0
 13 14  1  0
 11 14  1  0
  9 12  1  0
 11 10  1  0
  4 15  1  0
 15 16  1  0
 16 17  1  0
 16 18  1  0
 16 19  1  0
  9 20  1  6
  7 21  1  0
 21 22  1  0
 22 20  1  0
 10 23  1  6
 21 24  1  0
 24 25  1  0
 24 26  1  0
 24 27  1  0
  7  8  1  0
  7 28  1  1
M  ISO  6  17   2  18   2  19   2  25   2  26   2  27   2
M  END
> <chembl_id>
CHEMBL3989940

> <chembl_pref_name>
DEUDEXTROMETHORPHAN

$$$$

     RDKit          2D

 23 26  0  0  0  0  0  0  0  0999 V2000
    0.0000   -0.6667    0.0000 C   0  0  0  0  0  0  0  0  0  0  0  0
   -1.1833   -0.6667    0.0000 N   0  0  0  0  0  0  0  0  0  0  0  0
    0.7417   -1.5792    0.0000 C   0  0  0  0  0  0  0  0  0  0  0  0
   -0.5375   -3.2542    0.0000 S   0  0  0  0  0  0  0  0  0  0  0  0
    0.4917    0.3833    0.0000 N   0  0  0  0  0  0  0  0  0  0  0  0
    0.5042   -2.7292    0.0000 C   0  0  0  0  0  0  0  0  0  0  0  0
   -1.8875   -1.5917    0.0000 C   0  0  0  0  0  0  0  0  0  0  0  0
   -1.6083   -2.7417    0.0000 C   0  0  0  0  0  0  0  0  0  0  0  0
    1.4542    2.5083    0.0000 N   0  0  0  0  0  0  0  0  0  0  0  0
    1.9000   -1.2042    0.0000 C   0  0  0  0  0  0  0  0  0  0  0  0
    1.6542    0.4625    0.0000 C   0  0  0  0  0  0  0  0  0  0  0  0
   -0.1875    1.3083    0.0000 C   0  0  0  0  0  0  0  0  0  0  0  0
    1.4167   -3.5167    0.0000 C   0  0  0  0  0  0  0  0  0  0  0  0
    2.1625    1.5083    0.0000 C   0  0  0  0  0  0  0  0  0  0  0  0
    0.3042    2.4000    0.0000 C   0  0  0  0  0  0  0  0  0  0  0  0
    2.7792   -2.0000    0.0000 C   0  0  0  0  0  0  0  0  0  0  0  0
    2.5375   -3.1417    0.0000 C   0  0  0  0  0  0  0  0  0  0  0  0
    1.8792    3.5958    0.0000 C   0  0  0  0  0  0  0  0  0  0  0  0
   -3.0375   -1.2750    0.0000 C   0  0  0  0  0  0  0  0  0  0  0  0
   -2.4750   -3.5875    0.0000 C   0  0  0  0  0  0  0  0  0  0  0  0
    3.8917   -1.6500    0.0000 C   0  0  0  0  0  0  0  0  0  0  0  0
   -3.8958   -2.0917    0.0000 C   0  0  0  0  0  0  0  0  0  0  0  0
   -3.6125   -3.2417    0.0000 C   0  0  0  0  0  0  0  0  0  0  0  0
  2  1  2  0
  3  1  1  0
  4  6  1  0
  5  1  1  0
  6  3  2  0
  7  2  1  0
  8  7  2  0
  9 15  1  0
 10  3  1  0
 11  5  1  0
 12  5  1  0
 13  6  1  0
 14 11  1  0
 15 12  1  0
 16 10  2  0
 17 16  1  0
 18  9  1  0
 19  7  1  0
 20  8  1  0
 21 16  1  0
 22 19  2  0
 23 22  1  0
 14  9  1  0
  4  8  1  0
 13 17  2  0
 20 23  2  0
M  END
> <chembl_id>
CHEMBL2106892

> <chembl_pref_name>
METIAPINE

$$$$

     RDKit          2D

 21 24  0  0  0  0  0  0  0  0999 V2000
   14.9758   -0.0886    0.0000 N   0  0  0  0  0  0  0  0  0  0  0  0
   13.8965   -0.6837    0.0000 N   0  0  0  0  0  0  0  0  0  0  0  0
   14.9599   -1.3002    0.0000 N   0  0  0  0  0  0  0  0  0  0  0  0
   14.2457   -0.1018    0.0000 C   0  0  0  0  0  0  0  0  0  0  0  0
   15.2906   -0.6917    0.0000 C   0  0  0  0  0  0  0  0  0  0  0  0
   14.2536   -1.3002    0.0000 C   0  0  0  0  0  0  0  0  0  0  0  0
   16.7509   -0.0806    0.0000 C   0  0  0  0  0  0  0  0  0  0  0  0
   12.0129   -1.7075    0.0000 O   0  0  0  0  0  0  0  0  0  0  0  0
   16.5048   -1.9377    0.0000 O   0  0  0  0  0  0  0  0  0  0  0  0
   15.3462    0.6019    0.0000 C   0  0  0  0  0  0  0  0  0  0  0  0
   13.1954   -0.6758    0.0000 C   0  0  0  0  0  0  0  0  0  0  0  0
   14.9599   -2.0726    0.0000 C   0  0  0  0  0  0  0  0  0  0  0  0
   15.6742   -2.4853    0.0000 C   0  0  0  0  0  0  0  0  0  0  0  0
   16.0710    0.6019    0.0000 C   0  0  0  0  0  0  0  0  0  0  0  0
   12.8251   -1.3002    0.0000 C   0  0  0  0  0  0  0  0  0  0  0  0
   17.0154    0.8321    0.0000 O   0  0  0  0  0  0  0  0  0  0  0  0
   16.5048   -2.9826    0.0000 C   0  0  0  0  0  0  0  0  0  0  0  0
   12.8251   -2.1441    0.0000 C   0  0  0  0  0  0  0  0  0  0  0  0
   13.9044    0.5384    0.0000 O   0  0  0  0  0  0  0  0  0  0  0  0
   16.0234   -0.6917    0.0000 O   0  0  0  0  0  0  0  0  0  0  0  0
   14.0155   -1.9774    0.0000 O   0  0  0  0  0  0  0  0  0  0  0  0
  2  4  1  0
  3  5  1  0
  4  1  1  0
  5  1  1  0
  6  3  1  0
  7 14  1  0
  8 15  1  0
  9 13  1  0
 10  1  1  0
 11  2  1  0
 12  3  1  0
 13 12  1  0
 14 10  1  0
 15 11  1  0
 16 14  1  0
 17 13  1  0
 18 15  1  0
 19  4  2  0
 20  5  2  0
 21  6  2  0
 16  7  1  0
  2  6  1  0
 17  9  1  0
 18  8  1  0
M  END
> <chembl_id>
CHEMBL453863

> <chembl_pref_name>
TEROXIRONE

$$$$

     RDKit          2D

 20 22  0  0  0  0  0  0  0  0999 V2000
   -0.7458    0.1000    0.0000 C   0  0  0  0  0  0  0  0  0  0  0  0
    0.3750    0.6625    0.0000 C   0  0  0  0  0  0  0  0  0  0  0  0
   -1.8958    0.6458    0.0000 C   0  0  0  0  0  0  0  0  0  0  0  0
   -0.1708    2.8708    0.0000 O   0  0  0  0  0  0  0  0  0  0  0  0
    0.6292    1.8958    0.0000 C   0  0  0  0  0  0  0  0  0  0  0  0
    1.3500   -0.1792    0.0000 C   0  0  0  0  0  0  0  0  0  0  0  0
    3.2417   -1.8625    0.0000 C   0  0  0  0  0  0  0  0  0  0  0  0
   -0.7458   -1.1542    0.0000 O   0  0  0  0  0  0  0  0  0  0  0  0
   -2.1958    1.8833    0.0000 C   0  0  0  0  0  0  0  0  0  0  0  0
   -1.4333    2.8708    0.0000 C   0  0  0  0  0  0  0  0  0  0  0  0
    2.5542    0.2208    0.0000 C   0  0  0  0  0  0  0  0  0  0  0  0
    4.2042   -2.7542    0.0000 O   0  0  0  0  0  0  0  0  0  0  0  0
    1.8625    2.2958    0.0000 C   0  0  0  0  0  0  0  0  0  0  0  0
    3.5000   -0.6167    0.0000 C   0  0  0  0  0  0  0  0  0  0  0  0
    2.8125    1.4458    0.0000 C   0  0  0  0  0  0  0  0  0  0  0  0
    2.0167   -2.1500    0.0000 O   0  0  0  0  0  0  0  0  0  0  0  0
   -2.8208   -0.2542    0.0000 C   0  0  0  0  0  0  0  0  0  0  0  0
   -3.4250    2.2208    0.0000 C   0  0  0  0  0  0  0  0  0  0  0  0
   -4.0458    0.1125    0.0000 C   0  0  0  0  0  0  0  0  0  0  0  0
   -4.3458    1.3458    0.0000 C   0  0  0  0  0  0  0  0  0  0  0  0
  2  1  1  0
  3  1  1  0
  4  5  1  0
  5  2  2  0
  6  2  1  0
  7 14  1  0
  8  1  2  0
  9  3  2  0
 10  9  1  0
 11  6  2  0
 12  7  2  0
 13  5  1  0
 14 11  1  0
 15 11  1  0
 16  7  1  0
 17  3  1  0
 18  9  1  0
 19 17  2  0
 20 19  1  0
  4 10  1  0
 18 20  2  0
 13 15  2  0
M  END
> <chembl_id>
CHEMBL33211

> <chembl_pref_name>
ISOXEPAC

$$$$

     RDKit          2D

 23 26  0  0  0  0  0  0  0  0999 V2000
    1.6000   -1.5292    0.0000 C   0  0  0  0  0  0  0  0  0  0  0  0
    1.3125   -2.6667    0.0000 C   0  0  0  0  0  0  0  0  0  0  0  0
    0.8667   -0.6042    0.0000 C   0  0  0  0  0  0  0  0  0  0  0  0
   -0.3000   -0.6042    0.0000 N   0  0  0  0  0  0  0  0  0  0  0  0
    0.2375   -3.1875    0.0000 N   0  0  0  0  0  0  0  0  0  0  0  0
    2.3167   -3.2875    0.0000 S   0  0  0  0  0  0  0  0  0  0  0  0
    1.3667    0.4125    0.0000 N   0  0  0  0  0  0  0  0  0  0  0  0
   -1.0375   -1.5167    0.0000 C   0  0  0  0  0  0  0  0  0  0  0  0
    2.7792   -1.4542    0.0000 C   0  0  0  0  0  0  0  0  0  0  0  0
   -0.7833   -2.6667    0.0000 C   0  0  0  0  0  0  0  0  0  0  0  0
    3.2042   -2.5167    0.0000 C   0  0  0  0  0  0  0  0  0  0  0  0
   -2.1625   -1.1542    0.0000 C   0  0  0  0  0  0  0  0  0  0  0  0
    2.3667    2.5208    0.0000 N   0  0  0  0  0  0  0  0  0  0  0  0
    2.5375    0.5083    0.0000 C   0  0  0  0  0  0  0  0  0  0  0  0
    0.7167    1.3625    0.0000 C   0  0  0  0  0  0  0  0  0  0  0  0
   -1.6458   -3.4500    0.0000 C   0  0  0  0  0  0  0  0  0  0  0  0
   -3.0208   -1.9375    0.0000 C   0  0  0  0  0  0  0  0  0  0  0  0
    3.0167    1.5625    0.0000 C   0  0  0  0  0  0  0  0  0  0  0  0
    1.2042    2.4458    0.0000 C   0  0  0  0  0  0  0  0  0  0  0  0
   -2.7708   -3.0792    0.0000 C   0  0  0  0  0  0  0  0  0  0  0  0
   -4.1208   -1.6000    0.0000 F   0  0  0  0  0  0  0  0  0  0  0  0
    2.8542    3.5833    0.0000 C   0  0  0  0  0  0  0  0  0  0  0  0
    4.3375   -2.7375    0.0000 C   0  0  0  0  0  0  0  0  0  0  0  0
  2  1  2  0
  3  1  1  0
  4  3  2  0
  5  2  1  0
  6  2  1  0
  7  3  1  0
  8  4  1  0
  9  1  1  0
 10  5  1  0
 11  9  2  0
 12  8  1  0
 13 19  1  0
 14  7  1  0
 15  7  1  0
 16 10  1  0
 17 12  2  0
 18 14  1  0
 19 15  1  0
 20 16  2  0
 21 17  1  0
 22 13  1  0
 23 11  1  0
  6 11  1  0
  8 10  2  0
 18 13  1  0
 17 20  1  0
M  END
> <chembl_id>
CHEMBL273786

> <chembl_pref_name>
FLUMEZAPINE

$$$$

     RDKit          2D

 19 20  0  0  0  0  0  0  0  0999 V2000
   -2.9958    1.0125    0.0000 C   0  0  0  0  0  0  0  0  0  0  0  0
    2.5000   -0.0292    0.0000 C   0  0  0  0  0  0  0  0  0  0  0  0
    1.8875    1.0250    0.0000 C   0  0  0  0  0  0  0  0  0  0  0  0
    1.8875   -1.0875    0.0000 C   0  0  0  0  0  0  0  0  0  0  0  0
   -1.7833    1.0250    0.0000 C   0  0  0  0  0  0  0  0  0  0  0  0
    0.6625    1.0250    0.0000 C   0  0  0  0  0  0  0  0  0  0  0  0
    2.5000   -2.1292    0.0000 O   0  0  0  0  0  0  0  0  0  0  0  0
   -1.1708    2.1083    0.0000 C   0  0  0  0  0  0  0  0  0  0  0  0
   -1.1708   -0.0167    0.0000 C   0  0  0  0  0  0  0  0  0  0  0  0
    0.0542   -0.0167    0.0000 C   0  0  0  0  0  0  0  0  0  0  0  0
    0.0542    2.0958    0.0000 C   0  0  0  0  0  0  0  0  0  0  0  0
   -2.9958    2.2125    0.0000 F   0  0  0  0  0  0  0  0  0  0  0  0
   -4.1958    1.0125    0.0000 F   0  0  0  0  0  0  0  0  0  0  0  0
   -2.9958   -0.2125    0.0000 F   0  0  0  0  0  0  0  0  0  0  0  0
    0.6917   -1.0750    0.0000 O   0  0  0  0  0  0  0  0  0  0  0  0
    3.7250   -0.0500    0.0000 C   0  0  0  0  0  0  0  0  0  0  0  0
    2.5000    2.0833    0.0000 C   0  0  0  0  0  0  0  0  0  0  0  0
    4.3417    1.0250    0.0000 C   0  0  0  0  0  0  0  0  0  0  0  0
    3.7250    2.0833    0.0000 C   0  0  0  0  0  0  0  0  0  0  0  0
  2  3  2  0
  3  6  1  0
  4  2  1  0
  5  1  1  0
  6 10  1  0
  7  4  2  0
  8  5  2  0
  9  5  1  0
 10  9  2  0
 11  8  1  0
 12  1  1  0
 13  1  1  0
 14  1  1  0
 15  4  1  0
 16  2  1  0
 17  3  1  0
 18 19  1  0
 19 17  2  0
 11  6  2  0
 16 18  2  0
M  END
> <chembl_id>
CHEMBL2104509

> <chembl_pref_name>
XENALIPIN

$$$$

     RDKit          2D

 51 56  0  0  1  0  0  0  0  0999 V2000
   -1.8833    0.7708    0.0000 C   0  0  0  0  0  0  0  0  0  0  0  0
   -2.2833    0.4958    0.0000 N   0  0  0  0  0  0  0  0  0  0  0  0
   -2.0250    1.2500    0.0000 C   0  0  0  0  0  0  0  0  0  0  0  0
   -0.5583   -0.3750    0.0000 C   0  0  0  0  0  0  0  0  0  0  0  0
   -0.7208    0.0958    0.0000 C   0  0  0  0  0  0  0  0  0  0  0  0
   -1.3583    0.6583    0.0000 C   0  0  0  0  0  0  0  0  0  0  0  0
   -1.0208    1.0250    0.0000 N   0  0  0  0  0  0  0  0  0  0  0  0
   -2.7125    0.7583    0.0000 C   0  0  0  0  0  0  0  0  0  0  0  0
   -2.5458    1.2500    0.0000 C   0  0  0  0  0  0  0  0  0  0  0  0
   -0.4208    0.4208    0.0000 C   0  0  0  0  0  0  0  0  0  0  0  0
    2.5417   -0.1792    0.0000 C   0  0  0  0  0  0  0  0  0  0  0  0
    0.2542   -0.0917    0.0000 C   0  0  0  0  0  0  0  0  0  0  0  0
    1.0792    0.1250    0.0000 C   0  0  0  0  0  0  0  0  0  0  0  0
   -1.2250    0.1958    0.0000 C   0  0  0  0  0  0  0  0  0  0  0  0
   -0.0750   -0.4917    0.0000 C   0  0  0  0  0  0  0  0  0  0  0  0
    1.5542    0.0125    0.0000 C   0  0  0  0  0  0  0  0  0  0  0  0
   -0.9125   -0.7500    0.0000 C   0  0  0  0  0  0  0  0  0  0  0  0
    0.7167   -0.2375    0.0000 O   0  0  0  0  0  0  0  0  0  0  0  0
    2.4042    0.3000    0.0000 C   0  0  0  0  0  0  0  0  0  0  0  0
    2.1917   -0.5417    0.0000 C   0  0  0  0  0  0  0  0  0  0  0  0
   -0.5458    0.9208    0.0000 C   0  0  0  0  0  0  0  0  0  0  0  0
    3.2167   -0.7667    0.0000 C   0  0  0  0  0  0  0  0  0  0  0  0
    0.0917    0.3333    0.0000 C   0  0  0  0  0  0  0  0  0  0  0  0
    3.0292   -0.2917    0.0000 O   0  0  0  0  0  0  0  0  0  0  0  0
   -1.6625    1.6208    0.0000 C   0  0  0  0  0  0  0  0  0  0  0  0
    1.9042    0.4000    0.0000 C   0  0  0  0  0  0  0  0  0  0  0  0
    1.7167   -0.4542    0.0000 C   0  0  0  0  0  0  0  0  0  0  0  0
   -3.1708    0.6625    0.0000 C   0  0  0  0  0  0  0  0  0  0  0  0
   -2.8625    1.6208    0.0000 C   0  0  0  0  0  0  0  0  0  0  0  0
   -1.1958    1.5083    0.0000 C   0  0  0  0  0  0  0  0  0  0  0  0
    0.9125    0.5958    0.0000 O   0  0  0  0  0  0  0  0  0  0  0  0
    2.8542   -1.1292    0.0000 O   0  0  0  0  0  0  0  0  0  0  0  0
   -1.4083   -0.6500    0.0000 O   0  0  0  0  0  0  0  0  0  0  0  0
   -3.5083    1.0583    0.0000 C   0  0  0  0  0  0  0  0  0  0  0  0
   -3.3625    1.5250    0.0000 C   0  0  0  0  0  0  0  0  0  0  0  0
    0.0625   -0.9750    0.0000 O   0  0  0  0  0  0  0  0  0  0  0  0
    3.6917   -0.8792    0.0000 O   0  0  0  0  0  0  0  0  0  0  0  0
   -0.7625   -1.2417    0.0000 O   0  0  0  0  0  0  0  0  0  0  0  0
    2.3625   -1.0375    0.0000 O   0  0  0  0  0  0  0  0  0  0  0  0
    2.7417    0.6583    0.0000 O   0  0  0  0  0  0  0  0  0  0  0  0
   -4.0208    0.9458    0.0000 O   0  0  0  0  0  0  0  0  0  0  0  0
    3.8542   -1.3542    0.0000 C   0  0  0  0  0  0  0  0  0  0  0  0
   -0.2750   -1.3250    0.0000 C   0  0  0  0  0  0  0  0  0  0  0  0
    2.0375   -1.4042    0.0000 C   0  0  0  0  0  0  0  0  0  0  0  0
    2.6042    1.1375    0.0000 C   0  0  0  0  0  0  0  0  0  0  0  0
   -1.1000   -1.6125    0.0000 C   0  0  0  0  0  0  0  0  0  0  0  0
   -4.3458    1.3250    0.0000 C   0  0  0  0  0  0  0  0  0  0  0  0
    4.3417   -1.4667    0.0000 C   0  0  0  0  0  0  0  0  0  0  0  0
   -1.6625    0.2708    0.0000 H   0  0  0  0  0  0  0  0  0  0  0  0
   -1.0708   -0.3292    0.0000 H   0  0  0  0  0  0  0  0  0  0  0  0
   -0.0083    0.8125    0.0000 H   0  0  0  0  0  0  0  0  0  0  0  0
  2  1  1  0
  3  1  2  0
  4  5  1  0
  5 14  1  0
  6  1  1  0
  7  6  1  0
  8  2  1  0
  9  3  1  0
 10  5  1  0
 11 20  1  0
 12 23  1  0
 13 18  1  0
 14  6  1  0
 15  4  1  0
 16 13  1  0
  4 17  1  1
 12 18  1  1
 19 26  1  0
 20 27  2  0
 21  7  1  0
 22 24  1  0
 23 10  1  0
 24 11  1  0
 25  3  1  0
 26 16  2  0
 27 16  1  0
 28  8  2  0
 29  9  2  0
 30  7  1  0
 31 13  2  0
 32 22  2  0
 33 17  2  0
 34 28  1  0
 35 29  1  0
 15 36  1  6
 37 22  1  0
 38 17  1  0
 39 20  1  0
 40 19  1  0
 41 34  1  0
 42 37  1  0
 43 36  1  0
 44 39  1  0
 45 40  1  0
 46 38  1  0
 47 41  1  0
 48 42  1  0
  6 49  1  1
  5 50  1  6
 10 51  1  6
  9  8  1  0
 25 30  1  0
 21 10  1  0
 35 34  2  0
 15 12  1  0
 19 11  2  0
M  END
> <chembl_id>
CHEMBL1399124

> <chembl_pref_name>
SYROSINGOPINE

$$$$

     RDKit          2D

 28 29  0  0  0  0  0  0  0  0999 V2000
   -1.2208    1.9958    0.0000 Cl  0  0  0  0  0  0  0  0  0  0  0  0
    1.1917   -0.2375    0.0000 N   0  0  0  0  0  0  0  0  0  0  0  0
    1.8417   -0.9375    0.0000 C   0  0  0  0  0  0  0  0  0  0  0  0
    0.2792   -0.5042    0.0000 C   0  0  0  0  0  0  0  0  0  0  0  0
    3.3292   -0.0917    0.0000 C   0  0  0  0  0  0  0  0  0  0  0  0
    1.3500    0.6708    0.0000 C   0  0  0  0  0  0  0  0  0  0  0  0
    2.7875   -0.8792    0.0000 C   0  0  0  0  0  0  0  0  0  0  0  0
    3.0542    0.8000    0.0000 N   0  0  0  0  0  0  0  0  0  0  0  0
    2.1792    1.1583    0.0000 C   0  0  0  0  0  0  0  0  0  0  0  0
   -1.2875   -0.1167    0.0000 N   0  0  0  0  0  0  0  0  0  0  0  0
   -0.3833    0.1208    0.0000 C   0  0  0  0  0  0  0  0  0  0  0  0
    0.5292    1.1708    0.0000 N   0  0  0  0  0  0  0  0  0  0  0  0
   -3.1208   -0.6792    0.0000 N   0  0  0  0  0  0  0  0  0  0  0  0
    0.0917   -1.4375    0.0000 O   0  0  0  0  0  0  0  0  0  0  0  0
    4.2750   -0.2417    0.0000 O   0  0  0  0  0  0  0  0  0  0  0  0
   -1.5125   -1.0542    0.0000 C   0  0  0  0  0  0  0  0  0  0  0  0
   -1.9833    0.5083    0.0000 C   0  0  0  0  0  0  0  0  0  0  0  0
   -2.4333   -1.3292    0.0000 C   0  0  0  0  0  0  0  0  0  0  0  0
   -2.9083    0.2333    0.0000 C   0  0  0  0  0  0  0  0  0  0  0  0
    3.3167   -1.6750    0.0000 C   0  0  0  0  0  0  0  0  0  0  0  0
    1.4125   -1.8042    0.0000 C   0  0  0  0  0  0  0  0  0  0  0  0
    2.1792    2.1083    0.0000 C   0  0  0  0  0  0  0  0  0  0  0  0
   -4.0458   -0.9500    0.0000 C   0  0  0  0  0  0  0  0  0  0  0  0
    0.5292    2.1208    0.0000 C   0  0  0  0  0  0  0  0  0  0  0  0
    1.3542    2.5958    0.0000 C   0  0  0  0  0  0  0  0  0  0  0  0
    2.9000   -2.5250    0.0000 C   0  0  0  0  0  0  0  0  0  0  0  0
    1.9500   -2.5875    0.0000 C   0  0  0  0  0  0  0  0  0  0  0  0
   -4.2250    2.2208    0.0000 Cl  0  0  0  0  0  0  0  0  0  0  0  0
  3  2  1  0
  4  2  1  0
  5  7  1  0
  6  2  1  0
  7  3  2  0
  8  9  1  0
  9  6  1  0
 10 11  1  0
 11  4  1  0
 12  6  2  0
 13 19  1  0
 14  4  2  0
 15  5  2  0
 16 10  1  0
 17 10  1  0
 18 16  1  0
 19 17  1  0
 20  7  1  0
 21  3  1  0
 22  9  2  0
 23 13  1  0
 24 12  1  0
 25 24  2  0
 26 27  1  0
 27 21  2  0
  8  5  1  0
 22 25  1  0
 20 26  2  0
 18 13  1  0
M  END
> <chembl_id>
CHEMBL1531864

> <chembl_pref_name>
PIRENZEPINE HYDROCHLORIDE

$$$$

     RDKit          2D

 22 24  0  0  0  0  0  0  0  0999 V2000
    0.1500    0.1500    0.0000 N   0  0  0  0  0  0  0  0  0  0  0  0
   -1.2083    0.1500    0.0000 C   0  0  0  0  0  0  0  0  0  0  0  0
   -2.0250   -0.9125    0.0000 C   0  0  0  0  0  0  0  0  0  0  0  0
   -1.7000   -2.2417    0.0000 C   0  0  0  0  0  0  0  0  0  0  0  0
   -0.4625   -2.8292    0.0000 N   0  0  0  0  0  0  0  0  0  0  0  0
    1.0167   -0.9000    0.0000 C   0  0  0  0  0  0  0  0  0  0  0  0
    0.9792    1.3583    0.0000 C   0  0  0  0  0  0  0  0  0  0  0  0
    0.7375   -2.2250    0.0000 C   0  0  0  0  0  0  0  0  0  0  0  0
   -2.7083   -3.2167    0.0000 N   0  0  0  0  0  0  0  0  0  0  0  0
   -1.8250    1.3583    0.0000 O   0  0  0  0  0  0  0  0  0  0  0  0
    2.4042    1.3583    0.0000 C   0  0  0  0  0  0  0  0  0  0  0  0
    2.9917    2.5000    0.0000 N   0  0  0  0  0  0  0  0  0  0  0  0
   -3.3583   -0.5417    0.0000 C   0  0  0  0  0  0  0  0  0  0  0  0
    2.3417   -0.4625    0.0000 C   0  0  0  0  0  0  0  0  0  0  0  0
    1.7917   -3.1375    0.0000 C   0  0  0  0  0  0  0  0  0  0  0  0
   -4.0208   -2.8167    0.0000 C   0  0  0  0  0  0  0  0  0  0  0  0
    2.1542    3.5583    0.0000 C   0  0  0  0  0  0  0  0  0  0  0  0
    4.3417    2.6583    0.0000 C   0  0  0  0  0  0  0  0  0  0  0  0
    3.1375    0.3833    0.0000 C   0  0  0  0  0  0  0  0  0  0  0  0
   -4.3458   -1.4792    0.0000 C   0  0  0  0  0  0  0  0  0  0  0  0
    3.3667   -1.3792    0.0000 C   0  0  0  0  0  0  0  0  0  0  0  0
    3.0875   -2.7042    0.0000 C   0  0  0  0  0  0  0  0  0  0  0  0
  2  1  1  0
  3  2  1  0
  4  3  2  0
  5  8  1  0
  6  1  1  0
  7  1  1  0
  8  6  2  0
  9  4  1  0
 10  2  2  0
 11  7  1  0
 12 11  1  0
 13  3  1  0
 14  6  1  0
 15  8  1  0
 16 20  1  0
 17 12  1  0
 18 12  1  0
 19 11  1  0
 20 13  2  0
 21 14  2  0
 22 21  1  0
  5  4  1  0
 15 22  2  0
  9 16  2  0
M  END
> <chembl_id>
CHEMBL2104749

> <chembl_pref_name>
PROPIZEPINE

$$$$

     RDKit          2D

 29 31  0  0  0  0  0  0  0  0999 V2000
    5.0599    0.6206    0.0000 C   0  0  0  0  0  0  0  0  0  0  0  0
    4.3527    0.1957    0.0000 C   0  0  0  0  0  0  0  0  0  0  0  0
    4.3671   -0.6292    0.0000 C   0  0  0  0  0  0  0  0  0  0  0  0
    5.0886   -1.0292    0.0000 C   0  0  0  0  0  0  0  0  0  0  0  0
    5.1030   -1.8540    0.0000 O   0  0  0  0  0  0  0  0  0  0  0  0
    5.0455    1.4455    0.0000 O   0  0  0  0  0  0  0  0  0  0  0  0
    5.7814    0.2206    0.0000 O   0  0  0  0  0  0  0  0  0  0  0  0
    5.7958   -0.6043    0.0000 O   0  0  0  0  0  0  0  0  0  0  0  0
    0.1305   -0.1135    0.0000 C   0  0  0  0  0  0  0  0  0  0  0  0
    0.4936    0.6184    0.0000 N   0  0  0  0  0  0  0  0  0  0  0  0
    0.1362    1.3589    0.0000 C   0  0  0  0  0  0  0  0  0  0  0  0
   -0.6610   -0.3064    0.0000 N   0  0  0  0  0  0  0  0  0  0  0  0
   -0.6553    1.5461    0.0000 S   0  0  0  0  0  0  0  0  0  0  0  0
    0.6468   -0.7603    0.0000 N   0  0  0  0  0  0  0  0  0  0  0  0
    0.7263    1.9206    0.0000 N   0  0  0  0  0  0  0  0  0  0  0  0
   -1.2993    0.2099    0.0000 C   0  0  0  0  0  0  0  0  0  0  0  0
   -1.2993    1.0355    0.0000 C   0  0  0  0  0  0  0  0  0  0  0  0
    1.3107    0.7291    0.0000 C   0  0  0  0  0  0  0  0  0  0  0  0
    1.4497    1.5575    0.0000 C   0  0  0  0  0  0  0  0  0  0  0  0
    1.6710   -2.0341    0.0000 N   0  0  0  0  0  0  0  0  0  0  0  0
    1.4412   -0.6213    0.0000 C   0  0  0  0  0  0  0  0  0  0  0  0
    0.3263   -1.5149    0.0000 C   0  0  0  0  0  0  0  0  0  0  0  0
    1.9603   -1.2625    0.0000 C   0  0  0  0  0  0  0  0  0  0  0  0
    0.8199   -2.1617    0.0000 C   0  0  0  0  0  0  0  0  0  0  0  0
    2.2072   -2.6469    0.0000 C   0  0  0  0  0  0  0  0  0  0  0  0
   -2.0142   -0.2043    0.0000 C   0  0  0  0  0  0  0  0  0  0  0  0
   -2.0142    1.4525    0.0000 C   0  0  0  0  0  0  0  0  0  0  0  0
   -2.7235    0.2099    0.0000 C   0  0  0  0  0  0  0  0  0  0  0  0
   -2.7235    1.0383    0.0000 C   0  0  0  0  0  0  0  0  0  0  0  0
  1  2  1  0
  2  3  2  0
  3  4  1  0
  4  5  1  0
  1  6  1  0
  1  7  2  0
  4  8  2  0
 10  9  1  0
 11 10  1  0
 12  9  2  0
 13 11  1  0
 14  9  1  0
 15 11  2  0
 16 12  1  0
 17 16  2  0
 18 10  1  0
 19 18  2  0
 20 24  1  0
 21 14  1  0
 22 14  1  0
 23 21  1  0
 24 22  1  0
 25 20  1  0
 26 16  1  0
 27 17  1  0
 28 26  2  0
 29 28  1  0
 23 20  1  0
 13 17  1  0
 15 19  1  0
 27 29  2  0
M  END
> <chembl_id>
CHEMBL5314364

> <chembl_pref_name>
PENTIAPINE MALEATE

$$$$

     RDKit          2D

 21 24  0  0  0  0  0  0  0  0999 V2000
    0.1917   -0.1667    0.0000 C   0  0  0  0  0  0  0  0  0  0  0  0
    0.7250    0.9083    0.0000 N   0  0  0  0  0  0  0  0  0  0  0  0
    0.2000    1.9958    0.0000 C   0  0  0  0  0  0  0  0  0  0  0  0
   -0.9708   -0.4500    0.0000 N   0  0  0  0  0  0  0  0  0  0  0  0
   -0.9625    2.2708    0.0000 S   0  0  0  0  0  0  0  0  0  0  0  0
    0.9500   -1.1167    0.0000 N   0  0  0  0  0  0  0  0  0  0  0  0
    1.0667    2.8208    0.0000 N   0  0  0  0  0  0  0  0  0  0  0  0
   -1.9083    0.3083    0.0000 C   0  0  0  0  0  0  0  0  0  0  0  0
   -1.9083    1.5208    0.0000 C   0  0  0  0  0  0  0  0  0  0  0  0
    1.9250    1.0708    0.0000 C   0  0  0  0  0  0  0  0  0  0  0  0
    2.1292    2.2875    0.0000 C   0  0  0  0  0  0  0  0  0  0  0  0
    2.4542   -2.9875    0.0000 N   0  0  0  0  0  0  0  0  0  0  0  0
    2.1167   -0.9125    0.0000 C   0  0  0  0  0  0  0  0  0  0  0  0
    0.4792   -2.2250    0.0000 C   0  0  0  0  0  0  0  0  0  0  0  0
    2.8792   -1.8542    0.0000 C   0  0  0  0  0  0  0  0  0  0  0  0
    1.2042   -3.1750    0.0000 C   0  0  0  0  0  0  0  0  0  0  0  0
    3.2417   -3.8875    0.0000 C   0  0  0  0  0  0  0  0  0  0  0  0
   -2.9583   -0.3000    0.0000 C   0  0  0  0  0  0  0  0  0  0  0  0
   -2.9583    2.1333    0.0000 C   0  0  0  0  0  0  0  0  0  0  0  0
   -4.0000    0.3083    0.0000 C   0  0  0  0  0  0  0  0  0  0  0  0
   -4.0000    1.5250    0.0000 C   0  0  0  0  0  0  0  0  0  0  0  0
  2  1  1  0
  3  2  1  0
  4  1  2  0
  5  3  1  0
  6  1  1  0
  7  3  2  0
  8  4  1  0
  9  8  2  0
 10  2  1  0
 11 10  2  0
 12 16  1  0
 13  6  1  0
 14  6  1  0
 15 13  1  0
 16 14  1  0
 17 12  1  0
 18  8  1  0
 19  9  1  0
 20 18  2  0
 21 20  1  0
 15 12  1  0
  5  9  1  0
  7 11  1  0
 19 21  2  0
M  END
> <chembl_id>
CHEMBL2105337

> <chembl_pref_name>
PENTIAPINE

$$$$

     RDKit          2D

 30 32  0  0  1  0  0  0  0  0999 V2000
    5.1278  -11.0392    0.0000 C   0  0  0  0  0  0  0  0  0  0  0  0
    3.6970  -11.0392    0.0000 C   0  0  0  0  0  0  0  0  0  0  0  0
    4.4142  -10.6289    0.0000 C   0  0  0  0  0  0  0  0  0  0  0  0
    5.1278  -11.8711    0.0000 C   0  0  0  0  0  0  0  0  0  0  0  0
    3.6970  -11.8711    0.0000 C   0  0  0  0  0  0  0  0  0  0  0  0
    4.4142  -12.2814    0.0000 N   0  0  0  0  0  0  0  0  0  0  0  0
    5.8449   -8.9985    0.0000 N   0  0  0  0  0  0  0  0  0  0  0  0
    4.4142   -9.4273    0.0000 C   0  0  0  0  0  0  0  0  0  0  0  0
    5.1278   -9.0096    0.0000 C   0  0  0  0  0  0  0  0  0  0  0  0
    5.8376  -10.6289    0.0000 C   0  0  0  0  0  0  0  0  0  0  0  0
    2.9872  -10.6289    0.0000 C   0  0  0  0  0  0  0  0  0  0  0  0
    6.1777   -8.0003    0.0000 O   0  0  0  0  0  0  0  0  0  0  0  0
    6.7877   -9.3312    0.0000 O   0  0  0  0  0  0  0  0  0  0  0  0
    6.5585  -11.0244    0.0000 O   0  0  0  0  0  0  0  0  0  0  0  0
    5.8449   -9.8303    0.0000 O   0  0  0  0  0  0  0  0  0  0  0  0
    2.9872   -9.7971    0.0000 O   0  0  0  0  0  0  0  0  0  0  0  0
    8.6436  -10.5291    0.0000 O   0  0  0  0  0  0  0  0  0  0  0  0
    2.2847  -11.0355    0.0000 O   0  0  0  0  0  0  0  0  0  0  0  0
    2.9983  -12.2777    0.0000 C   0  0  0  0  0  0  0  0  0  0  0  0
    5.8154  -12.2777    0.0000 C   0  0  0  0  0  0  0  0  0  0  0  0
    7.2535  -10.6030    0.0000 C   0  0  0  0  0  0  0  0  0  0  0  0
    3.6970   -9.0096    0.0000 C   0  0  0  0  0  0  0  0  0  0  0  0
    7.9855  -10.9949    0.0000 C   0  0  0  0  0  0  0  0  0  0  0  0
    5.1278   -8.1778    0.0000 C   0  0  0  0  0  0  0  0  0  0  0  0
    9.2869  -11.0244    0.0000 C   0  0  0  0  0  0  0  0  0  0  0  0
    1.5786  -10.6178    0.0000 C   0  0  0  0  0  0  0  0  0  0  0  0
    8.2295  -11.7823    0.0000 C   0  0  0  0  0  0  0  0  0  0  0  0
    3.6970   -8.1778    0.0000 C   0  0  0  0  0  0  0  0  0  0  0  0
    4.4142   -7.7637    0.0000 C   0  0  0  0  0  0  0  0  0  0  0  0
    9.0318  -11.7823    0.0000 C   0  0  0  0  0  0  0  0  0  0  0  0
  2  3  1  0
  3  1  1  0
  4  1  2  0
  5  6  1  0
  6  4  1  0
  7  9  1  0
  3  8  1  0
  9  8  2  0
 10  1  1  0
 11  2  1  0
 12  7  1  0
 13  7  2  0
 14 10  1  0
 15 10  2  0
 16 11  2  0
 17 23  1  0
 18 11  1  0
 19  5  1  0
 20  4  1  0
 21 14  1  0
 22  8  1  0
 23 21  1  0
 24  9  1  0
 25 17  1  0
 26 18  1  0
 27 23  1  0
 28 22  2  0
 29 28  1  0
 30 27  1  0
  2  5  2  0
 24 29  2  0
 30 25  1  0
M  CHG  2   7   1  12  -1
M  END
> <chembl_id>
CHEMBL2218905

> <chembl_pref_name>
FURNIDIPINE

$$$$

     RDKit          2D

135147  0  0  0  0  0  0  0  0999 V2000
    9.6763    2.7648    0.0000 C   0  0  0  0  0  0  0  0  0  0  0  0
    8.9162    2.4442    0.0000 C   0  0  0  0  0  0  0  0  0  0  0  0
    8.2584    2.9422    0.0000 C   0  0  0  0  0  0  0  0  0  0  0  0
   10.3341    2.2668    0.0000 C   0  0  0  0  0  0  0  0  0  0  0  0
   13.1699    1.9121    0.0000 C   0  0  0  0  0  0  0  0  0  0  0  0
    9.7787    3.5835    0.0000 C   0  0  0  0  0  0  0  0  0  0  0  0
    9.1210    4.0814    0.0000 C   0  0  0  0  0  0  0  0  0  0  0  0
    7.5816    2.4705    0.0000 O   0  0  0  0  0  0  0  0  0  0  0  0
    8.8138    1.6256    0.0000 C   0  0  0  0  0  0  0  0  0  0  0  0
   15.3912   -3.3544    0.0000 C   0  0  0  0  0  0  0  0  0  0  0  0
   12.4530   -3.8182    0.0000 C   0  0  0  0  0  0  0  0  0  0  0  0
    8.3609    3.7608    0.0000 C   0  0  0  0  0  0  0  0  0  0  0  0
   13.2723    2.7307    0.0000 O   0  0  0  0  0  0  0  0  0  0  0  0
   13.8709   -3.9956    0.0000 C   0  0  0  0  0  0  0  0  0  0  0  0
   11.1375   -2.8223    0.0000 C   0  0  0  0  0  0  0  0  0  0  0  0
   11.0942    2.5875    0.0000 O   0  0  0  0  0  0  0  0  0  0  0  0
   13.9733   -3.1770    0.0000 O   0  0  0  0  0  0  0  0  0  0  0  0
   11.8977   -2.5016    0.0000 O   0  0  0  0  0  0  0  0  0  0  0  0
   11.0351   -3.6409    0.0000 C   0  0  0  0  0  0  0  0  0  0  0  0
   14.5287   -4.4936    0.0000 C   0  0  0  0  0  0  0  0  0  0  0  0
   15.2888   -4.1730    0.0000 C   0  0  0  0  0  0  0  0  0  0  0  0
   11.6929   -4.1389    0.0000 C   0  0  0  0  0  0  0  0  0  0  0  0
   10.5822   -1.5056    0.0000 C   0  0  0  0  0  0  0  0  0  0  0  0
   12.5121    2.4101    0.0000 C   0  0  0  0  0  0  0  0  0  0  0  0
   13.0675    1.0935    0.0000 O   0  0  0  0  0  0  0  0  0  0  0  0
   14.7335   -2.8564    0.0000 C   0  0  0  0  0  0  0  0  0  0  0  0
   12.5554   -2.9996    0.0000 C   0  0  0  0  0  0  0  0  0  0  0  0
   14.0324    3.0513    0.0000 C   0  0  0  0  0  0  0  0  0  0  0  0
   16.1514   -3.0337    0.0000 N   0  0  0  0  0  0  0  0  0  0  0  0
   11.7520    2.0895    0.0000 C   0  0  0  0  0  0  0  0  0  0  0  0
   11.3423   -1.1850    0.0000 C   0  0  0  0  0  0  0  0  0  0  0  0
   13.1108   -4.3162    0.0000 O   0  0  0  0  0  0  0  0  0  0  0  0
   13.8276    1.4141    0.0000 C   0  0  0  0  0  0  0  0  0  0  0  0
   10.4798   -2.3243    0.0000 O   0  0  0  0  0  0  0  0  0  0  0  0
   14.5878    1.7347    0.0000 C   0  0  0  0  0  0  0  0  0  0  0  0
   11.4448   -0.3664    0.0000 C   0  0  0  0  0  0  0  0  0  0  0  0
    7.8210    1.6810    0.0000 C   0  0  0  0  0  0  0  0  0  0  0  0
   16.2538   -2.2151    0.0000 C   0  0  0  0  0  0  0  0  0  0  0  0
    9.4715    1.1276    0.0000 C   0  0  0  0  0  0  0  0  0  0  0  0
   10.2317    1.4482    0.0000 O   0  0  0  0  0  0  0  0  0  0  0  0
    9.3691    0.3090    0.0000 C   0  0  0  0  0  0  0  0  0  0  0  0
   14.6902    2.5533    0.0000 C   0  0  0  0  0  0  0  0  0  0  0  0
   11.6496    1.2708    0.0000 C   0  0  0  0  0  0  0  0  0  0  0  0
   12.3073    0.7729    0.0000 C   0  0  0  0  0  0  0  0  0  0  0  0
    9.9245   -1.0076    0.0000 C   0  0  0  0  0  0  0  0  0  0  0  0
   10.0269   -0.1890    0.0000 C   0  0  0  0  0  0  0  0  0  0  0  0
    9.5739    1.9462    0.0000 O   0  0  0  0  0  0  0  0  0  0  0  0
   17.0139   -1.8945    0.0000 O   0  0  0  0  0  0  0  0  0  0  0  0
   12.2049   -0.0458    0.0000 C   0  0  0  0  0  0  0  0  0  0  0  0
   14.1348    3.8700    0.0000 C   0  0  0  0  0  0  0  0  0  0  0  0
    7.7031    4.2588    0.0000 O   0  0  0  0  0  0  0  0  0  0  0  0
   15.9465   -4.6710    0.0000 O   0  0  0  0  0  0  0  0  0  0  0  0
   11.5905   -4.9575    0.0000 O   0  0  0  0  0  0  0  0  0  0  0  0
    9.2234    4.9001    0.0000 C   0  0  0  0  0  0  0  0  0  0  0  0
   12.0001   -1.6830    0.0000 C   0  0  0  0  0  0  0  0  0  0  0  0
   14.8359   -2.0378    0.0000 C   0  0  0  0  0  0  0  0  0  0  0  0
   13.3156   -2.6790    0.0000 C   0  0  0  0  0  0  0  0  0  0  0  0
   15.5960   -1.7171    0.0000 C   0  0  0  0  0  0  0  0  0  0  0  0
   15.4503    2.8740    0.0000 C   0  0  0  0  0  0  0  0  0  0  0  0
    9.1643   -1.3283    0.0000 C   0  0  0  0  0  0  0  0  0  0  0  0
   15.8441   -5.4896    0.0000 C   0  0  0  0  0  0  0  0  0  0  0  0
   10.8303   -5.2781    0.0000 C   0  0  0  0  0  0  0  0  0  0  0  0
   11.8544    2.9081    0.0000 H   0  0  0  0  0  0  0  0  0  0  0  0
    7.5523    3.3687    0.0000 H   0  0  0  0  0  0  0  0  0  0  0  0
   10.4365    3.0855    0.0000 H   0  0  0  0  0  0  0  0  0  0  0  0
   14.8950    4.1906    0.0000 C   0  0  0  0  0  0  0  0  0  0  0  0
   13.4771    4.3680    0.0000 C   0  0  0  0  0  0  0  0  0  0  0  0
   -0.2253    3.0830    0.0000 C   0  0  0  0  0  0  0  0  0  0  0  0
   -0.9854    2.7624    0.0000 C   0  0  0  0  0  0  0  0  0  0  0  0
   -1.6432    3.2604    0.0000 C   0  0  0  0  0  0  0  0  0  0  0  0
    0.4325    2.5850    0.0000 C   0  0  0  0  0  0  0  0  0  0  0  0
    3.2682    2.2303    0.0000 C   0  0  0  0  0  0  0  0  0  0  0  0
   -0.1229    3.9016    0.0000 C   0  0  0  0  0  0  0  0  0  0  0  0
   -0.7806    4.3996    0.0000 C   0  0  0  0  0  0  0  0  0  0  0  0
   -2.3201    2.7887    0.0000 O   0  0  0  0  0  0  0  0  0  0  0  0
   -1.0878    1.9438    0.0000 C   0  0  0  0  0  0  0  0  0  0  0  0
   -2.7696   -5.7444    0.0000 C   0  0  0  0  0  0  0  0  0  0  0  0
   -1.7023   -2.9679    0.0000 C   0  0  0  0  0  0  0  0  0  0  0  0
   -1.5408    4.0790    0.0000 C   0  0  0  0  0  0  0  0  0  0  0  0
    3.3706    3.0489    0.0000 O   0  0  0  0  0  0  0  0  0  0  0  0
   -2.5648   -4.1072    0.0000 C   0  0  0  0  0  0  0  0  0  0  0  0
   -0.1820   -2.3267    0.0000 C   0  0  0  0  0  0  0  0  0  0  0  0
    1.1926    2.9056    0.0000 O   0  0  0  0  0  0  0  0  0  0  0  0
   -1.9071   -4.6052    0.0000 O   0  0  0  0  0  0  0  0  0  0  0  0
   -0.2844   -3.1453    0.0000 O   0  0  0  0  0  0  0  0  0  0  0  0
   -0.8397   -1.8287    0.0000 C   0  0  0  0  0  0  0  0  0  0  0  0
   -3.3250   -4.4278    0.0000 C   0  0  0  0  0  0  0  0  0  0  0  0
   -3.4274   -5.2464    0.0000 C   0  0  0  0  0  0  0  0  0  0  0  0
   -1.5999   -2.1493    0.0000 C   0  0  0  0  0  0  0  0  0  0  0  0
    0.6806   -1.1875    0.0000 C   0  0  0  0  0  0  0  0  0  0  0  0
    2.6105    2.7283    0.0000 C   0  0  0  0  0  0  0  0  0  0  0  0
    3.1658    1.4117    0.0000 O   0  0  0  0  0  0  0  0  0  0  0  0
   -2.0095   -5.4238    0.0000 C   0  0  0  0  0  0  0  0  0  0  0  0
   -1.0445   -3.4659    0.0000 C   0  0  0  0  0  0  0  0  0  0  0  0
    4.1308    3.3695    0.0000 C   0  0  0  0  0  0  0  0  0  0  0  0
   -2.8720   -6.5630    0.0000 N   0  0  0  0  0  0  0  0  0  0  0  0
    1.8503    2.4076    0.0000 C   0  0  0  0  0  0  0  0  0  0  0  0
    1.4407   -0.8668    0.0000 C   0  0  0  0  0  0  0  0  0  0  0  0
   -2.4624   -3.2886    0.0000 O   0  0  0  0  0  0  0  0  0  0  0  0
    3.9260    1.7323    0.0000 C   0  0  0  0  0  0  0  0  0  0  0  0
    0.5782   -2.0061    0.0000 O   0  0  0  0  0  0  0  0  0  0  0  0
    4.6861    2.0529    0.0000 C   0  0  0  0  0  0  0  0  0  0  0  0
    1.5431   -0.0482    0.0000 C   0  0  0  0  0  0  0  0  0  0  0  0
   -2.0806    1.9992    0.0000 C   0  0  0  0  0  0  0  0  0  0  0  0
   -3.6322   -6.8837    0.0000 C   0  0  0  0  0  0  0  0  0  0  0  0
   -0.4301    1.4458    0.0000 C   0  0  0  0  0  0  0  0  0  0  0  0
    0.3300    1.7664    0.0000 O   0  0  0  0  0  0  0  0  0  0  0  0
   -0.5325    0.6272    0.0000 C   0  0  0  0  0  0  0  0  0  0  0  0
    4.7885    2.8715    0.0000 C   0  0  0  0  0  0  0  0  0  0  0  0
    1.7479    1.5890    0.0000 C   0  0  0  0  0  0  0  0  0  0  0  0
    2.4057    1.0910    0.0000 C   0  0  0  0  0  0  0  0  0  0  0  0
    0.0228   -0.6895    0.0000 C   0  0  0  0  0  0  0  0  0  0  0  0
    0.1252    0.1292    0.0000 C   0  0  0  0  0  0  0  0  0  0  0  0
   -0.3277    2.2644    0.0000 O   0  0  0  0  0  0  0  0  0  0  0  0
   -4.2899   -6.3857    0.0000 O   0  0  0  0  0  0  0  0  0  0  0  0
    2.3033    0.2724    0.0000 C   0  0  0  0  0  0  0  0  0  0  0  0
    4.2332    4.1881    0.0000 C   0  0  0  0  0  0  0  0  0  0  0  0
   -2.1985    4.5770    0.0000 O   0  0  0  0  0  0  0  0  0  0  0  0
   -4.1875   -5.5671    0.0000 O   0  0  0  0  0  0  0  0  0  0  0  0
   -2.2576   -1.6513    0.0000 O   0  0  0  0  0  0  0  0  0  0  0  0
   -0.6782    5.2183    0.0000 C   0  0  0  0  0  0  0  0  0  0  0  0
    2.0985   -1.3648    0.0000 C   0  0  0  0  0  0  0  0  0  0  0  0
   -1.3517   -5.9218    0.0000 C   0  0  0  0  0  0  0  0  0  0  0  0
   -1.1469   -4.2846    0.0000 C   0  0  0  0  0  0  0  0  0  0  0  0
   -3.7346   -7.7023    0.0000 C   0  0  0  0  0  0  0  0  0  0  0  0
    5.5487    3.1921    0.0000 C   0  0  0  0  0  0  0  0  0  0  0  0
   -0.7373   -1.0101    0.0000 C   0  0  0  0  0  0  0  0  0  0  0  0
   -4.8453   -5.0691    0.0000 C   0  0  0  0  0  0  0  0  0  0  0  0
   -2.1552   -0.8327    0.0000 C   0  0  0  0  0  0  0  0  0  0  0  0
    1.9528    3.2263    0.0000 H   0  0  0  0  0  0  0  0  0  0  0  0
   -2.3494    3.6869    0.0000 H   0  0  0  0  0  0  0  0  0  0  0  0
    0.5349    3.4036    0.0000 H   0  0  0  0  0  0  0  0  0  0  0  0
    3.5755    4.6861    0.0000 C   0  0  0  0  0  0  0  0  0  0  0  0
    4.9933    4.5088    0.0000 C   0  0  0  0  0  0  0  0  0  0  0  0
    5.0957    5.3274    0.0000 C   0  0  0  0  0  0  0  0  0  0  0  0
  2  1  1  0
  3  2  1  0
  1  4  1  0
  5 24  1  0
  6  1  1  0
  7  6  2  0
  8  3  1  0
  9  2  1  0
 10 21  1  0
 11 22  1  0
 12  7  1  0
  5 13  1  1
 14 32  1  6
 15 34  1  6
 16  4  1  0
 17 14  1  0
 18 15  1  0
 19 15  1  0
 20 14  1  0
 21 20  1  0
 22 19  1  0
 23 45  1  0
 24 30  1  0
 25 44  1  0
 26 17  1  0
 27 18  1  0
 28 13  1  0
 10 29  1  1
 30 16  1  0
 31 36  2  0
 11 32  1  6
  5 33  1  6
 23 34  1  1
 35 33  2  0
 36 49  1  0
 37  9  1  0
 38 29  1  0
 39  9  2  0
 40  4  2  0
 41 39  1  0
 42 35  1  0
 43 30  1  0
 44 43  1  0
 45 46  1  0
 46 41  2  0
  2 47  1  1
 48 38  2  0
 44 49  1  6
 50 28  1  0
 12 51  1  6
 21 52  1  1
 22 53  1  1
 54  7  1  0
 55 31  1  0
 26 56  1  1
 27 57  1  1
 58 38  1  0
 42 59  1  1
 45 60  1  1
 61 52  1  0
 62 53  1  0
  3 12  1  0
  8 37  1  0
  5 25  1  0
 23 31  1  0
 28 42  1  0
 27 11  1  0
 26 10  1  0
 30 63  1  1
  3 64  1  1
  1 65  1  6
 50 66  1  0
 50 67  1  0
 69 68  1  0
 70 69  1  0
 68 71  1  0
 72 91  1  0
 73 68  1  0
 74 73  2  0
 75 70  1  0
 76 69  1  0
 77 88  1  0
 78 89  1  0
 79 74  1  0
 72 80  1  1
 81 99  1  6
 82101  1  6
 83 71  1  0
 84 81  1  0
 85 82  1  0
 86 82  1  0
 87 81  1  0
 88 87  1  0
 89 86  1  0
 90112  1  0
 91 97  1  0
 92111  1  0
 93 84  1  0
 94 85  1  0
 95 80  1  0
 77 96  1  1
 97 83  1  0
 98103  2  0
 78 99  1  6
 72100  1  6
 90101  1  1
102100  2  0
103116  1  0
104 76  1  0
105 96  1  0
106 76  2  0
107 71  2  0
108106  1  0
109102  1  0
110 97  1  0
111110  1  0
112113  1  0
113108  2  0
 69114  1  1
115105  2  0
111116  1  6
117 95  1  0
 79118  1  6
 88119  1  1
 89120  1  1
121 74  1  0
122 98  1  0
 93123  1  1
 94124  1  1
125105  1  0
109126  1  1
112127  1  1
128119  1  0
129120  1  0
 70 79  1  0
 75104  1  0
 72 92  1  0
 90 98  1  0
 95109  1  0
 94 78  1  0
 93 77  1  0
 97130  1  1
 70131  1  1
 68132  1  6
117133  1  0
117134  1  1
134135  1  0
M  END
> <chembl_id>
CHEMBL3989594

> <chembl_pref_name>
EPRINOMECTIN

$$$$

     RDKit          2D

 11 12  0  0  0  0  0  0  0  0999 V2000
    5.0750   -3.2542    0.0000 N   0  0  0  0  0  0  0  0  0  0  0  0
    3.9542   -3.5625    0.0000 C   0  0  0  0  0  0  0  0  0  0  0  0
    4.4750   -3.2542    0.0000 C   0  0  0  0  0  0  0  0  0  0  0  0
    3.4375   -4.4667    0.0000 N   0  0  0  0  0  0  0  0  0  0  0  0
    3.9542   -4.1667    0.0000 C   0  0  0  0  0  0  0  0  0  0  0  0
    5.2625   -2.6792    0.0000 C   0  0  0  0  0  0  0  0  0  0  0  0
    3.4375   -3.2625    0.0000 C   0  0  0  0  0  0  0  0  0  0  0  0
    2.9167   -4.1667    0.0000 C   0  0  0  0  0  0  0  0  0  0  0  0
    4.2875   -2.6792    0.0000 C   0  0  0  0  0  0  0  0  0  0  0  0
    2.9167   -3.5625    0.0000 C   0  0  0  0  0  0  0  0  0  0  0  0
    4.7750   -2.3292    0.0000 C   0  0  0  0  0  0  0  0  0  0  0  0
  2  3  1  0
  3  1  1  0
  4  5  2  0
  5  2  1  0
  6  1  1  0
  7  2  2  0
  8 10  2  0
  9  3  1  0
 10  7  1  0
 11  6  1  0
  9 11  1  0
  4  8  1  0
M  END
> <chembl_id>
CHEMBL1132

> <chembl_pref_name>
NORNICOTINE

$$$$

     RDKit          2D

 11 11  0  0  0  0  0  0  0  0999 V2000
    0.0000    0.7250    0.0000 N   0  0  0  0  0  0  0  0  0  0  0  0
    1.2417    0.0000    0.0000 C   0  0  0  0  0  0  0  0  0  0  0  0
   -1.2375    0.0083    0.0000 C   0  0  0  0  0  0  0  0  0  0  0  0
    1.2417   -1.4375    0.0000 C   0  0  0  0  0  0  0  0  0  0  0  0
    0.0000   -2.1417    0.0000 C   0  0  0  0  0  0  0  0  0  0  0  0
    0.0000    2.1458    0.0000 C   0  0  0  0  0  0  0  0  0  0  0  0
   -1.2375   -1.4250    0.0000 C   0  0  0  0  0  0  0  0  0  0  0  0
    1.6167    1.3833    0.0000 C   0  0  0  0  0  0  0  0  0  0  0  0
    2.6292   -0.3625    0.0000 C   0  0  0  0  0  0  0  0  0  0  0  0
   -2.6333   -0.3375    0.0000 C   0  0  0  0  0  0  0  0  0  0  0  0
   -1.8083    1.3083    0.0000 C   0  0  0  0  0  0  0  0  0  0  0  0
  2  1  1  0
  3  1  1  0
  4  2  1  0
  5  7  1  0
  6  1  1  0
  7  3  1  0
  8  2  1  0
  9  2  1  0
 10  3  1  0
 11  3  1  0
  4  5  2  0
M  END
> <chembl_id>
CHEMBL2106267

> <chembl_pref_name>
DROPEMPINE

$$$$

     RDKit          2D

 37 37  0  0  0  0  0  0  0  0999 V2000
    4.8875   -3.3417    0.0000 Cl  0  0  0  0  0  0  0  0  0  0  0  0
    1.1000   -1.5542    0.0000 C   0  0  0  0  0  0  0  0  0  0  0  0
   -0.1708   -1.5542    0.0000 C   0  0  0  0  0  0  0  0  0  0  0  0
    0.4667   -1.1917    0.0000 C   0  0  0  0  0  0  0  0  0  0  0  0
    1.1000   -2.2917    0.0000 C   0  0  0  0  0  0  0  0  0  0  0  0
   -0.1708   -2.2917    0.0000 C   0  0  0  0  0  0  0  0  0  0  0  0
    0.4667   -2.6500    0.0000 N   0  0  0  0  0  0  0  0  0  0  0  0
   -0.7958   -1.1917    0.0000 C   0  0  0  0  0  0  0  0  0  0  0  0
    1.7250   -1.1917    0.0000 C   0  0  0  0  0  0  0  0  0  0  0  0
    0.4667   -0.3417    0.0000 C   0  0  0  0  0  0  0  0  0  0  0  0
    1.7042   -0.3417    0.0000 C   0  0  0  0  0  0  0  0  0  0  0  0
    2.9417   -0.3417    0.0000 C   0  0  0  0  0  0  0  0  0  0  0  0
    2.3167    0.0000    0.0000 C   0  0  0  0  0  0  0  0  0  0  0  0
    1.7042   -2.6292    0.0000 C   0  0  0  0  0  0  0  0  0  0  0  0
    1.1000    0.0208    0.0000 C   0  0  0  0  0  0  0  0  0  0  0  0
    3.5542    0.0000    0.0000 O   0  0  0  0  0  0  0  0  0  0  0  0
   -0.8000   -0.5417    0.0000 O   0  0  0  0  0  0  0  0  0  0  0  0
    1.7250   -0.6500    0.0000 O   0  0  0  0  0  0  0  0  0  0  0  0
    2.9417   -0.8667    0.0000 O   0  0  0  0  0  0  0  0  0  0  0  0
    4.1667   -0.3417    0.0000 C   0  0  0  0  0  0  0  0  0  0  0  0
    1.7042   -3.3250    0.0000 N   0  0  0  0  0  0  0  0  0  0  0  0
   -1.4208   -1.5417    0.0000 O   0  0  0  0  0  0  0  0  0  0  0  0
    2.3667   -1.5417    0.0000 O   0  0  0  0  0  0  0  0  0  0  0  0
   -0.7833   -2.6292    0.0000 C   0  0  0  0  0  0  0  0  0  0  0  0
   -0.1708    0.0208    0.0000 C   0  0  0  0  0  0  0  0  0  0  0  0
    1.1000    0.7500    0.0000 C   0  0  0  0  0  0  0  0  0  0  0  0
    4.1667   -1.0500    0.0000 C   0  0  0  0  0  0  0  0  0  0  0  0
    4.7250    0.0708    0.0000 C   0  0  0  0  0  0  0  0  0  0  0  0
    4.7917   -0.7417    0.0000 C   0  0  0  0  0  0  0  0  0  0  0  0
    2.3167   -3.6667    0.0000 C   0  0  0  0  0  0  0  0  0  0  0  0
    1.0917   -3.6542    0.0000 C   0  0  0  0  0  0  0  0  0  0  0  0
    2.9750   -1.2167    0.0000 C   0  0  0  0  0  0  0  0  0  0  0  0
   -2.0458   -1.1875    0.0000 C   0  0  0  0  0  0  0  0  0  0  0  0
   -0.1708    0.7500    0.0000 C   0  0  0  0  0  0  0  0  0  0  0  0
   -2.6708   -1.5417    0.0000 C   0  0  0  0  0  0  0  0  0  0  0  0
    3.6250   -1.5667    0.0000 C   0  0  0  0  0  0  0  0  0  0  0  0
    0.4667    1.1250    0.0000 C   0  0  0  0  0  0  0  0  0  0  0  0
  3  4  1  0
  4  2  1  0
  5  2  2  0
  6  7  1  0
  7  5  1  0
  8  3  1  0
  9  2  1  0
 10  4  1  0
 11 15  1  0
 12 13  1  0
 13 11  2  0
 14  5  1  0
 15 10  2  0
 16 12  1  0
 17  8  2  0
 18  9  2  0
 19 12  2  0
 20 16  1  0
 21 14  1  0
 22  8  1  0
 23  9  1  0
 24  6  1  0
 25 10  1  0
 26 15  1  0
 27 20  1  0
 28 20  1  0
 29 20  1  0
 30 21  1  0
 31 21  1  0
 32 23  1  0
 33 22  1  0
 34 25  2  0
 35 33  1  0
 36 32  1  0
 37 34  1  0
  6  3  2  0
 37 26  2  0
M  END
> <chembl_id>
CHEMBL2104474

> <chembl_pref_name>
TELUDIPINE HYDROCHLORIDE

$$$$

     RDKit          2D

 26 29  0  0  0  0  0  0  0  0999 V2000
    1.1375   -0.0125    0.0000 C   0  0  0  0  0  0  0  0  0  0  0  0
    0.1167   -0.0125    0.0000 C   0  0  0  0  0  0  0  0  0  0  0  0
    3.3292   -0.4750    0.0000 C   0  0  0  0  0  0  0  0  0  0  0  0
    3.3292    0.5208    0.0000 N   0  0  0  0  0  0  0  0  0  0  0  0
    1.5875   -0.9000    0.0000 C   0  0  0  0  0  0  0  0  0  0  0  0
   -0.3750   -1.0167    0.0000 C   0  0  0  0  0  0  0  0  0  0  0  0
    1.5792    0.8833    0.0000 C   0  0  0  0  0  0  0  0  0  0  0  0
    2.5625   -1.1000    0.0000 C   0  0  0  0  0  0  0  0  0  0  0  0
   -1.3208   -1.0167    0.0000 N   0  0  0  0  0  0  0  0  0  0  0  0
    2.5542    1.1250    0.0000 C   0  0  0  0  0  0  0  0  0  0  0  0
   -3.3708   -1.0167    0.0000 N   0  0  0  0  0  0  0  0  0  0  0  0
    4.2292   -0.8917    0.0000 O   0  0  0  0  0  0  0  0  0  0  0  0
   -0.1208   -2.0000    0.0000 O   0  0  0  0  0  0  0  0  0  0  0  0
   -1.8333   -0.1417    0.0000 C   0  0  0  0  0  0  0  0  0  0  0  0
   -1.8083   -1.8542    0.0000 C   0  0  0  0  0  0  0  0  0  0  0  0
   -2.8625   -0.1417    0.0000 C   0  0  0  0  0  0  0  0  0  0  0  0
   -2.8583   -1.8542    0.0000 C   0  0  0  0  0  0  0  0  0  0  0  0
    0.9167   -1.6667    0.0000 C   0  0  0  0  0  0  0  0  0  0  0  0
    0.8625    1.6333    0.0000 C   0  0  0  0  0  0  0  0  0  0  0  0
    2.8792   -2.0792    0.0000 C   0  0  0  0  0  0  0  0  0  0  0  0
    2.8167    2.1000    0.0000 C   0  0  0  0  0  0  0  0  0  0  0  0
   -4.3458   -1.0167    0.0000 C   0  0  0  0  0  0  0  0  0  0  0  0
    1.2375   -2.6250    0.0000 C   0  0  0  0  0  0  0  0  0  0  0  0
    1.1500    2.5833    0.0000 C   0  0  0  0  0  0  0  0  0  0  0  0
    2.2125   -2.8167    0.0000 C   0  0  0  0  0  0  0  0  0  0  0  0
    2.1250    2.8333    0.0000 C   0  0  0  0  0  0  0  0  0  0  0  0
  2  1  2  0
  3  8  1  0
  4 10  1  0
  5  1  1  0
  6  2  1  0
  7  1  1  0
  8  5  2  0
  9  6  1  0
 10  7  2  0
 11 17  1  0
 12  3  2  0
 13  6  2  0
 14  9  1  0
 15  9  1  0
 16 14  1  0
 17 15  1  0
 18  5  1  0
 19  7  1  0
 20  8  1  0
 21 10  1  0
 22 11  1  0
 23 18  2  0
 24 19  2  0
 25 23  1  0
 26 24  1  0
  3  4  1  0
 21 26  2  0
 20 25  2  0
 16 11  1  0
M  END
> <chembl_id>
CHEMBL2106144

> <chembl_pref_name>
DARENZEPINE

$$$$

     RDKit          2D

 13 14  0  0  0  0  0  0  0  0999 V2000
    1.4042    0.0000    0.0000 N   0  0  0  0  0  0  0  0  0  0  0  0
    1.2792   -1.3792    0.0000 C   0  0  0  0  0  0  0  0  0  0  0  0
    2.8292    0.2875    0.0000 N   0  0  0  0  0  0  0  0  0  0  0  0
    3.5292   -0.9125    0.0000 N   0  0  0  0  0  0  0  0  0  0  0  0
    2.5667   -1.9750    0.0000 N   0  0  0  0  0  0  0  0  0  0  0  0
    0.0167   -2.1042    0.0000 O   0  0  0  0  0  0  0  0  0  0  0  0
   -1.1750   -1.3667    0.0000 C   0  0  0  0  0  0  0  0  0  0  0  0
   -1.1750    0.0625    0.0000 C   0  0  0  0  0  0  0  0  0  0  0  0
   -2.4083    0.8000    0.0000 C   0  0  0  0  0  0  0  0  0  0  0  0
   -2.3958    2.2375    0.0000 O   0  0  0  0  0  0  0  0  0  0  0  0
   -3.6958   -1.3292    0.0000 C   0  0  0  0  0  0  0  0  0  0  0  0
   -2.4500   -2.0792    0.0000 C   0  0  0  0  0  0  0  0  0  0  0  0
   -3.6833    0.0958    0.0000 C   0  0  0  0  0  0  0  0  0  0  0  0
  2  1  2  0
  3  1  1  0
  4  3  2  0
  5  2  1  0
  6  2  1  0
  7  6  1  0
  8  7  1  0
  9  8  2  0
 10  9  1  0
 11 12  1  0
 12  7  2  0
 13 11  2  0
  5  4  1  0
  9 13  1  0
M  END
> <chembl_id>
CHEMBL2106850

> <chembl_pref_name>
MELIZAME

$$$$

     RDKit          2D

 20 21  0  0  0  0  0  0  0  0999 V2000
    0.6138    0.8255    0.0000 C   0  0  0  0  0  0  0  0  0  0  0  0
   -0.1005    0.4127    0.0000 C   0  0  0  0  0  0  0  0  0  0  0  0
    1.3282    0.4127    0.0000 C   0  0  0  0  0  0  0  0  0  0  0  0
   -1.5292    0.4127    0.0000 C   0  0  0  0  0  0  0  0  0  0  0  0
   -0.8149    0.8255    0.0000 N   0  0  0  0  0  0  0  0  0  0  0  0
    0.6138    1.6509    0.0000 C   0  0  0  0  0  0  0  0  0  0  0  0
   -1.5292   -0.4075    0.0000 N   0  0  0  0  0  0  0  0  0  0  0  0
   -2.2991    0.6561    0.0000 S   0  0  0  0  0  0  0  0  0  0  0  0
    0.0344    2.2356    0.0000 S   0  0  0  0  0  0  0  0  0  0  0  0
    1.1932    2.2356    0.0000 S   0  0  0  0  0  0  0  0  0  0  0  0
   -2.2779   -0.6614    0.0000 C   0  0  0  0  0  0  0  0  0  0  0  0
    2.0425    0.8255    0.0000 O   0  0  0  0  0  0  0  0  0  0  0  0
   -2.7594   -0.0027    0.0000 C   0  0  0  0  0  0  0  0  0  0  0  0
    0.6138    2.8045    0.0000 C   0  0  0  0  0  0  0  0  0  0  0  0
   -0.1005   -0.4075    0.0000 O   0  0  0  0  0  0  0  0  0  0  0  0
    1.3282   -0.4075    0.0000 O   0  0  0  0  0  0  0  0  0  0  0  0
    2.7568    0.4127    0.0000 C   0  0  0  0  0  0  0  0  0  0  0  0
    3.4712    0.8255    0.0000 C   0  0  0  0  0  0  0  0  0  0  0  0
    2.7568   -0.4075    0.0000 C   0  0  0  0  0  0  0  0  0  0  0  0
   -2.5267   -1.4480    0.0000 C   0  0  0  0  0  0  0  0  0  0  0  0
  2  1  1  0
  3  1  1  0
  4  5  1  0
  5  2  1  0
  6  1  2  0
  7  4  2  0
  8  4  1  0
  9  6  1  0
 10  6  1  0
 11  7  1  0
 12  3  1  0
 13  8  1  0
 14 10  1  0
 15  2  2  0
 16  3  2  0
 17 12  1  0
 18 17  1  0
 19 17  1  0
  9 14  1  0
 11 13  2  0
 11 20  1  0
M  END
> <chembl_id>
CHEMBL3301677

> <chembl_pref_name>
MIVOTILATE

$$$$

     RDKit          2D

 16 16  0  0  0  0  0  0  0  0999 V2000
   -0.7208   -0.8875    0.0000 C   0  0  0  0  0  0  0  0  0  0  0  0
    0.3792   -0.2375    0.0000 N   0  0  0  0  0  0  0  0  0  0  0  0
   -0.8375   -2.1542    0.0000 N   0  0  0  0  0  0  0  0  0  0  0  0
    1.4792   -0.8667    0.0000 C   0  0  0  0  0  0  0  0  0  0  0  0
   -1.8708   -0.3667    0.0000 O   0  0  0  0  0  0  0  0  0  0  0  0
   -2.0833   -2.4167    0.0000 C   0  0  0  0  0  0  0  0  0  0  0  0
   -2.7208   -1.3167    0.0000 C   0  0  0  0  0  0  0  0  0  0  0  0
    2.5792   -0.2167    0.0000 O   0  0  0  0  0  0  0  0  0  0  0  0
    1.4792   -2.1375    0.0000 C   0  0  0  0  0  0  0  0  0  0  0  0
    0.3792    1.0458    0.0000 C   0  0  0  0  0  0  0  0  0  0  0  0
   -2.6000   -3.5875    0.0000 C   0  0  0  0  0  0  0  0  0  0  0  0
    2.5625   -2.7750    0.0000 C   0  0  0  0  0  0  0  0  0  0  0  0
    0.3792   -2.7750    0.0000 C   0  0  0  0  0  0  0  0  0  0  0  0
   -0.7208    1.6750    0.0000 C   0  0  0  0  0  0  0  0  0  0  0  0
   -0.7208    2.9625    0.0000 C   0  0  0  0  0  0  0  0  0  0  0  0
   -1.8208    3.5958    0.0000 C   0  0  0  0  0  0  0  0  0  0  0  0
  2  1  1  0
  3  1  2  0
  4  2  1  0
  5  1  1  0
  6  3  1  0
  7  5  1  0
  8  4  2  0
  9  4  1  0
 10  2  1  0
 11  6  1  0
 12  9  1  0
 13  9  1  0
 14 10  1  0
 15 14  1  0
 16 15  1  0
  6  7  2  0
M  END
> <chembl_id>
CHEMBL2105068

> <chembl_pref_name>
ISAMOXOLE

$$$$

     RDKit          2D

 39 42  0  0  0  0  0  0  0  0999 V2000
   10.1125   -6.5917    0.0000 S   0  0  0  0  0  0  0  0  0  0  0  0
   10.4542   -5.9750    0.0000 O   0  0  0  0  0  0  0  0  0  0  0  0
    9.7542   -5.9750    0.0000 O   0  0  0  0  0  0  0  0  0  0  0  0
   10.7167   -6.9417    0.0000 O   0  0  0  0  0  0  0  0  0  0  0  0
    9.5042   -6.9417    0.0000 C   0  0  0  0  0  0  0  0  0  0  0  0
    5.9417   -5.6792    0.0000 C   0  0  0  0  0  0  0  0  0  0  0  0
    6.5292   -6.0417    0.0000 C   0  0  0  0  0  0  0  0  0  0  0  0
    5.9417   -4.9792    0.0000 C   0  0  0  0  0  0  0  0  0  0  0  0
    5.3125   -6.0167    0.0000 C   0  0  0  0  0  0  0  0  0  0  0  0
    6.5292   -6.7417    0.0000 C   0  0  0  0  0  0  0  0  0  0  0  0
    7.1667   -5.6917    0.0000 C   0  0  0  0  0  0  0  0  0  0  0  0
    5.3292   -4.6167    0.0000 C   0  0  0  0  0  0  0  0  0  0  0  0
    2.2542   -4.9292    0.0000 N   0  0  0  0  0  0  0  0  0  0  0  0
    5.3125   -6.7375    0.0000 C   0  0  0  0  0  0  0  0  0  0  0  0
    6.5750   -4.6167    0.0000 O   0  0  0  0  0  0  0  0  0  0  0  0
    5.9167   -7.1000    0.0000 C   0  0  0  0  0  0  0  0  0  0  0  0
    7.1792   -4.9917    0.0000 C   0  0  0  0  0  0  0  0  0  0  0  0
    7.7792   -6.0542    0.0000 C   0  0  0  0  0  0  0  0  0  0  0  0
    5.3292   -3.8792    0.0000 C   0  0  0  0  0  0  0  0  0  0  0  0
    4.7292   -4.9667    0.0000 C   0  0  0  0  0  0  0  0  0  0  0  0
    4.1250   -3.8917    0.0000 C   0  0  0  0  0  0  0  0  0  0  0  0
    8.4042   -5.0042    0.0000 C   0  0  0  0  0  0  0  0  0  0  0  0
    4.1375   -4.6167    0.0000 C   0  0  0  0  0  0  0  0  0  0  0  0
    4.7500   -3.5167    0.0000 C   0  0  0  0  0  0  0  0  0  0  0  0
    7.7917   -4.6417    0.0000 C   0  0  0  0  0  0  0  0  0  0  0  0
    8.4167   -5.7042    0.0000 C   0  0  0  0  0  0  0  0  0  0  0  0
    3.5125   -3.5292    0.0000 O   0  0  0  0  0  0  0  0  0  0  0  0
    2.8667   -4.5917    0.0000 C   0  0  0  0  0  0  0  0  0  0  0  0
    4.7292   -5.6625    0.0000 C   0  0  0  0  0  0  0  0  0  0  0  0
    2.8667   -3.8792    0.0000 C   0  0  0  0  0  0  0  0  0  0  0  0
    9.0292   -4.6292    0.0000 O   0  0  0  0  0  0  0  0  0  0  0  0
    1.6500   -4.5667    0.0000 C   0  0  0  0  0  0  0  0  0  0  0  0
    2.1042   -5.5875    0.0000 C   0  0  0  0  0  0  0  0  0  0  0  0
    4.6917   -7.0792    0.0000 C   0  0  0  0  0  0  0  0  0  0  0  0
    8.9292   -3.8792    0.0000 C   0  0  0  0  0  0  0  0  0  0  0  0
    4.1000   -6.0042    0.0000 C   0  0  0  0  0  0  0  0  0  0  0  0
    1.1167   -5.0375    0.0000 C   0  0  0  0  0  0  0  0  0  0  0  0
    1.4042   -5.6667    0.0000 C   0  0  0  0  0  0  0  0  0  0  0  0
    4.1000   -6.7292    0.0000 C   0  0  0  0  0  0  0  0  0  0  0  0
  2  1  2  0
  3  1  2  0
  4  1  1  0
  5  1  1  0
  7  6  2  0
  8  6  1  0
  9  6  1  0
 10  7  1  0
 11  7  1  0
 12  8  1  0
 13 28  1  0
 14  9  2  0
 15  8  2  0
 16 14  1  0
 17 11  1  0
 18 11  2  0
 19 12  1  0
 20 12  2  0
 21 23  2  0
 22 26  2  0
 23 20  1  0
 24 19  2  0
 25 17  2  0
 26 18  1  0
 27 21  1  0
 28 30  1  0
 29  9  1  0
 30 27  1  0
 31 22  1  0
 32 13  1  0
 33 13  1  0
 34 14  1  0
 35 31  1  0
 36 29  2  0
 37 32  1  0
 38 33  1  0
 39 36  1  0
 10 16  1  0
 34 39  2  0
 24 21  1  0
 25 22  1  0
 38 37  1  0
M  END
> <chembl_id>
CHEMBL2104447

> <chembl_pref_name>
TRIOXIFENE MESYLATE

$$$$

     RDKit          2D

 23 25  0  0  0  0  0  0  0  0999 V2000
   -2.7000   -0.0167    0.0000 C   0  0  0  0  0  0  0  0  0  0  0  0
    2.5625   -0.1042    0.0000 C   0  0  0  0  0  0  0  0  0  0  0  0
    3.1417    0.8125    0.0000 C   0  0  0  0  0  0  0  0  0  0  0  0
   -2.1750   -0.9667    0.0000 C   0  0  0  0  0  0  0  0  0  0  0  0
    1.9875   -1.0167    0.0000 O   0  0  0  0  0  0  0  0  0  0  0  0
   -1.0833   -0.9667    0.0000 C   0  0  0  0  0  0  0  0  0  0  0  0
   -3.7958   -0.0167    0.0000 C   0  0  0  0  0  0  0  0  0  0  0  0
    2.6375    1.7583    0.0000 O   0  0  0  0  0  0  0  0  0  0  0  0
   -0.5458   -0.0542    0.0000 C   0  0  0  0  0  0  0  0  0  0  0  0
   -0.5625   -1.9167    0.0000 C   0  0  0  0  0  0  0  0  0  0  0  0
    1.0792   -1.0167    0.0000 C   0  0  0  0  0  0  0  0  0  0  0  0
    4.2250    0.7625    0.0000 O   0  0  0  0  0  0  0  0  0  0  0  0
    0.5375   -0.0542    0.0000 C   0  0  0  0  0  0  0  0  0  0  0  0
    0.5042   -1.9167    0.0000 C   0  0  0  0  0  0  0  0  0  0  0  0
   -2.7208   -1.8792    0.0000 C   0  0  0  0  0  0  0  0  0  0  0  0
   -2.1500    0.9208    0.0000 C   0  0  0  0  0  0  0  0  0  0  0  0
    1.6542    0.4708    0.0000 C   0  0  0  0  0  0  0  0  0  0  0  0
    3.5000   -0.6917    0.0000 C   0  0  0  0  0  0  0  0  0  0  0  0
   -3.8125   -1.8792    0.0000 C   0  0  0  0  0  0  0  0  0  0  0  0
   -4.3458   -0.9375    0.0000 C   0  0  0  0  0  0  0  0  0  0  0  0
   -4.3208    0.9458    0.0000 C   0  0  0  0  0  0  0  0  0  0  0  0
   -2.6750    1.8625    0.0000 C   0  0  0  0  0  0  0  0  0  0  0  0
   -3.7708    1.8625    0.0000 C   0  0  0  0  0  0  0  0  0  0  0  0
  2  5  1  0
  3  2  1  0
  4  1  1  0
  5 11  1  0
  6  4  1  0
  7  1  2  0
  8  3  2  0
  9  6  2  0
 10  6  1  0
 11 14  1  0
 12  3  1  0
 13  9  1  0
 14 10  2  0
 15  4  1  0
 16  1  1  0
 17  2  1  0
 18  2  1  0
 19 20  1  0
 20  7  1  0
 21  7  1  0
 22 16  2  0
 23 22  1  0
 21 23  2  0
 15 19  1  0
 13 11  2  0
M  END
> <chembl_id>
CHEMBL1909070

> <chembl_pref_name>
NAFENOPIN

$$$$

     RDKit          2D

 33 37  0  0  0  0  0  0  0  0999 V2000
   -5.1981    1.4978    0.0000 C   0  0  0  0  0  0  0  0  0  0  0  0
   -3.8968    0.7501    0.0000 C   0  0  0  0  0  0  0  0  0  0  0  0
   -2.5978    1.5002    0.0000 C   0  0  0  0  0  0  0  0  0  0  0  0
   -2.5978   -1.5002    0.0000 C   0  0  0  0  0  0  0  0  0  0  0  0
   -3.8968   -0.7501    0.0000 C   0  0  0  0  0  0  0  0  0  0  0  0
   -6.4967    0.7456    0.0000 C   0  0  0  0  0  0  0  0  0  0  0  0
   -7.7980    1.4933    0.0000 C   0  0  0  0  0  0  0  0  0  0  0  0
   -9.0967    0.7410    0.0000 C   0  0  0  0  0  0  0  0  0  0  0  0
   -7.8001    2.6933    0.0000 O   0  0  0  0  0  0  0  0  0  0  0  0
   -9.2330   -0.7422    0.0000 C   0  0  0  0  0  0  0  0  0  0  0  0
  -10.6740   -1.0488    0.0000 C   0  0  0  0  0  0  0  0  0  0  0  0
  -11.2683   -2.4245    0.0000 C   0  0  0  0  0  0  0  0  0  0  0  0
  -10.3734   -3.6294    0.0000 O   0  0  0  0  0  0  0  0  0  0  0  0
  -12.4603   -2.5629    0.0000 O   0  0  0  0  0  0  0  0  0  0  0  0
  -10.9686   -5.0072    0.0000 C   0  0  0  0  0  0  0  0  0  0  0  0
  -10.2531   -5.9705    0.0000 C   0  0  0  0  0  0  0  0  0  0  0  0
  -10.4447    1.3544    0.0000 N   0  0  0  0  0  0  0  0  0  0  0  0
  -11.4361    0.2354    0.0000 C   0  0  0  0  0  0  0  0  0  0  0  0
  -12.9128    0.5206    0.0000 C   0  0  0  0  0  0  0  0  0  0  0  0
  -13.3875    1.9643    0.0000 C   0  0  0  0  0  0  0  0  0  0  0  0
  -12.3961    3.0833    0.0000 C   0  0  0  0  0  0  0  0  0  0  0  0
  -10.9058    2.7859    0.0000 C   0  0  0  0  0  0  0  0  0  0  0  0
   -1.2989   -0.7501    0.0000 C   0  0  0  0  0  0  0  0  0  0  0  0
   -1.2989    0.7501    0.0000 C   0  0  0  0  0  0  0  0  0  0  0  0
    0.0000    1.5002    0.0000 S   0  0  0  0  0  0  0  0  0  0  0  0
    0.0000   -1.5002    0.0000 N   0  0  0  0  0  0  0  0  0  0  0  0
    1.2806   -0.7501    0.0000 C   0  0  0  0  0  0  0  0  0  0  0  0
    1.2806    0.7501    0.0000 C   0  0  0  0  0  0  0  0  0  0  0  0
    2.5978    1.5002    0.0000 C   0  0  0  0  0  0  0  0  0  0  0  0
    3.8968    0.7501    0.0000 C   0  0  0  0  0  0  0  0  0  0  0  0
    3.8968   -0.7501    0.0000 C   0  0  0  0  0  0  0  0  0  0  0  0
    2.5978   -1.5002    0.0000 C   0  0  0  0  0  0  0  0  0  0  0  0
    0.0037   -2.7002    0.0000 C   0  0  0  0  0  0  0  0  0  0  0  0
  1  2  1  0
  2  3  2  0
  3 24  1  0
 23  4  1  0
  4  5  2  0
  5  2  1  0
  1  6  2  0
  6  7  1  0
  7  8  1  0
  7  9  2  0
  8 10  2  0
 10 11  1  0
 11 18  2  0
 17  8  1  0
 11 12  1  0
 12 13  1  0
 12 14  2  0
 13 15  1  0
 15 16  1  0
 17 18  1  0
 18 19  1  0
 19 20  2  0
 20 21  1  0
 21 22  2  0
 22 17  1  0
 23 24  2  0
 23 26  1  0
 24 25  1  0
 25 28  1  0
 27 26  1  0
 27 28  2  0
 28 29  1  0
 29 30  2  0
 30 31  1  0
 31 32  2  0
 32 27  1  0
 26 33  1  0
M  END
> <chembl_id>
CHEMBL3828157

> <chembl_pref_name>
None

$$$$

     RDKit          2D

 22 25  0  0  0  0  0  0  0  0999 V2000
   -4.1053   -2.6410    0.0000 O   0  0  0  0  0  0  0  0  0  0  0  0
   -3.3620   -2.9989    0.0000 C   0  0  0  0  0  0  0  0  0  0  0  0
   -3.1784   -3.8033    0.0000 C   0  0  0  0  0  0  0  0  0  0  0  0
   -3.6928   -4.4483    0.0000 C   0  0  0  0  0  0  0  0  0  0  0  0
   -4.5178   -4.4483    0.0000 C   0  0  0  0  0  0  0  0  0  0  0  0
   -5.0321   -3.8033    0.0000 C   0  0  0  0  0  0  0  0  0  0  0  0
   -4.8486   -2.9989    0.0000 C   0  0  0  0  0  0  0  0  0  0  0  0
   -2.3900   -4.0464    0.0000 C   0  0  0  0  0  0  0  0  0  0  0  0
   -1.7853   -3.4853    0.0000 C   0  0  0  0  0  0  0  0  0  0  0  0
   -1.9689   -2.6810    0.0000 C   0  0  0  0  0  0  0  0  0  0  0  0
   -2.7572   -2.4378    0.0000 C   0  0  0  0  0  0  0  0  0  0  0  0
   -5.8205   -4.0464    0.0000 C   0  0  0  0  0  0  0  0  0  0  0  0
   -6.4253   -3.4853    0.0000 C   0  0  0  0  0  0  0  0  0  0  0  0
   -6.2417   -2.6810    0.0000 C   0  0  0  0  0  0  0  0  0  0  0  0
   -5.4533   -2.4378    0.0000 C   0  0  0  0  0  0  0  0  0  0  0  0
   -3.2803   -5.1627    0.0000 C   0  0  0  0  0  0  0  0  0  0  0  0
   -3.6928   -5.8772    0.0000 C   0  0  0  0  0  0  0  0  0  0  0  0
   -4.5178   -5.8772    0.0000 N   0  0  0  0  0  0  0  0  0  0  0  0
   -4.9303   -5.1627    0.0000 C   0  0  0  0  0  0  0  0  0  0  0  0
   -2.8701   -4.5099    0.0000 O   0  0  0  0  0  0  0  0  0  0  0  0
   -4.9303   -6.5917    0.0000 C   0  0  0  0  0  0  0  0  0  0  0  0
   -5.2698   -1.6335    0.0000 C   0  0  0  0  0  0  0  0  0  0  0  0
  1  2  1  0
  3  4  1  0
  5  6  1  0
  7  1  1  0
  2 11  2  0
  2  3  1  0
  3  8  2  0
  8  9  1  0
  9 10  2  0
 10 11  1  0
  6 12  2  0
  7  6  1  0
  7 15  2  0
 12 13  1  0
 13 14  2  0
 14 15  1  0
  4 16  1  0
  5  4  1  0
 19  5  1  0
 16 17  1  0
 17 18  1  0
 18 19  1  0
  4 20  1  0
 18 21  1  0
 15 22  1  0
M  END
> <chembl_id>
CHEMBL3989420

> <chembl_pref_name>
BELOXEPIN

$$$$

     RDKit          2D

 28 31  0  0  0  0  0  0  0  0999 V2000
    4.7292   -8.9292    0.0000 Cl  0  0  0  0  0  0  0  0  0  0  0  0
    1.5417   -7.5792    0.0000 C   0  0  0  0  0  0  0  0  0  0  0  0
    2.3125   -7.5792    0.0000 C   0  0  0  0  0  0  0  0  0  0  0  0
    1.3167   -6.7792    0.0000 N   0  0  0  0  0  0  0  0  0  0  0  0
    1.0917   -8.2042    0.0000 C   0  0  0  0  0  0  0  0  0  0  0  0
    0.2542   -8.2042    0.0000 N   0  0  0  0  0  0  0  0  0  0  0  0
    2.5792   -6.8167    0.0000 C   0  0  0  0  0  0  0  0  0  0  0  0
    1.9625   -6.3667    0.0000 C   0  0  0  0  0  0  0  0  0  0  0  0
    0.6667   -6.4667    0.0000 C   0  0  0  0  0  0  0  0  0  0  0  0
   -0.2083   -7.5542    0.0000 C   0  0  0  0  0  0  0  0  0  0  0  0
    0.0042   -6.7792    0.0000 C   0  0  0  0  0  0  0  0  0  0  0  0
    2.8167   -8.2167    0.0000 C   0  0  0  0  0  0  0  0  0  0  0  0
   -0.1208   -8.8875    0.0000 C   0  0  0  0  0  0  0  0  0  0  0  0
    1.4542   -8.8875    0.0000 C   0  0  0  0  0  0  0  0  0  0  0  0
    1.0542   -9.5625    0.0000 N   0  0  0  0  0  0  0  0  0  0  0  0
    2.6167   -8.8917    0.0000 O   0  0  0  0  0  0  0  0  0  0  0  0
    0.2875   -9.5625    0.0000 C   0  0  0  0  0  0  0  0  0  0  0  0
    3.5375   -8.0417    0.0000 O   0  0  0  0  0  0  0  0  0  0  0  0
    3.3042   -6.5000    0.0000 C   0  0  0  0  0  0  0  0  0  0  0  0
    2.0250   -5.5750    0.0000 C   0  0  0  0  0  0  0  0  0  0  0  0
   -0.5625   -6.2292    0.0000 C   0  0  0  0  0  0  0  0  0  0  0  0
   -0.9583   -7.7542    0.0000 C   0  0  0  0  0  0  0  0  0  0  0  0
    1.4542  -10.2500    0.0000 C   0  0  0  0  0  0  0  0  0  0  0  0
    3.7917   -7.3667    0.0000 C   0  0  0  0  0  0  0  0  0  0  0  0
    3.3917   -5.7125    0.0000 C   0  0  0  0  0  0  0  0  0  0  0  0
    2.7417   -5.2417    0.0000 C   0  0  0  0  0  0  0  0  0  0  0  0
   -1.3333   -6.4500    0.0000 C   0  0  0  0  0  0  0  0  0  0  0  0
   -1.5333   -7.2000    0.0000 C   0  0  0  0  0  0  0  0  0  0  0  0
  3  2  2  0
  4  2  1  0
  5  2  1  0
  6  5  1  0
  7  3  1  0
  8  4  1  0
  9  4  1  0
 10  6  1  0
 11  9  1  0
 12  3  1  0
 13  6  1  0
 14  5  1  0
 15 14  1  0
 16 12  2  0
 17 15  1  0
 18 12  1  0
 19  7  1  0
 20  8  1  0
 21 11  2  0
 22 10  2  0
 23 15  1  0
 24 18  1  0
 25 19  2  0
 26 20  2  0
 27 21  1  0
 28 22  1  0
  7  8  2  0
 10 11  1  0
 17 13  1  0
 25 26  1  0
 28 27  2  0
M  END
> <chembl_id>
CHEMBL2105333

> <chembl_pref_name>
SERAZAPINE HYDROCHLORIDE

$$$$

     RDKit          2D

 20 22  0  0  0  0  0  0  0  0999 V2000
    0.6667   -0.0500    0.0000 N   0  0  0  0  0  0  0  0  0  0  0  0
    1.5792   -1.1542    0.0000 C   0  0  0  0  0  0  0  0  0  0  0  0
    1.2875   -2.5500    0.0000 C   0  0  0  0  0  0  0  0  0  0  0  0
   -0.7583   -0.0500    0.0000 C   0  0  0  0  0  0  0  0  0  0  0  0
    0.0167   -3.1792    0.0000 C   0  0  0  0  0  0  0  0  0  0  0  0
   -1.6208   -1.1667    0.0000 C   0  0  0  0  0  0  0  0  0  0  0  0
   -1.2750   -2.5667    0.0000 C   0  0  0  0  0  0  0  0  0  0  0  0
    0.9000    1.2125    0.0000 C   0  0  0  0  0  0  0  0  0  0  0  0
   -2.3625    3.3708    0.0000 N   0  0  0  0  0  0  0  0  0  0  0  0
    0.1792    2.4125    0.0000 C   0  0  0  0  0  0  0  0  0  0  0  0
    2.3917   -3.5042    0.0000 C   0  0  0  0  0  0  0  0  0  0  0  0
    2.9750   -0.7000    0.0000 C   0  0  0  0  0  0  0  0  0  0  0  0
   -2.3333   -3.5875    0.0000 C   0  0  0  0  0  0  0  0  0  0  0  0
   -3.0125   -0.7792    0.0000 C   0  0  0  0  0  0  0  0  0  0  0  0
   -1.3458    2.4125    0.0000 C   0  0  0  0  0  0  0  0  0  0  0  0
   -3.7458    2.9208    0.0000 C   0  0  0  0  0  0  0  0  0  0  0  0
    3.7542   -3.0542    0.0000 C   0  0  0  0  0  0  0  0  0  0  0  0
    4.0417   -1.6542    0.0000 C   0  0  0  0  0  0  0  0  0  0  0  0
   -3.7083   -3.1667    0.0000 C   0  0  0  0  0  0  0  0  0  0  0  0
   -4.0500   -1.7667    0.0000 C   0  0  0  0  0  0  0  0  0  0  0  0
  2  1  1  0
  3  2  2  0
  4  1  1  0
  5  3  1  0
  6  4  1  0
  7  6  2  0
  8  1  1  0
  9 15  1  0
 10  8  1  0
 11  3  1  0
 12  2  1  0
 13  7  1  0
 14  6  1  0
 15 10  1  0
 16  9  1  0
 17 18  1  0
 18 12  2  0
 19 20  1  0
 20 14  2  0
  5  7  1  0
 11 17  2  0
 13 19  2  0
M  END
> <chembl_id>
CHEMBL2105220

> <chembl_pref_name>
MEZEPINE

$$$$

     RDKit          2D

 23 26  0  0  0  0  0  0  0  0999 V2000
    0.0167    0.2833    0.0000 C   0  0  0  0  0  0  0  0  0  0  0  0
    1.2667    0.9083    0.0000 C   0  0  0  0  0  0  0  0  0  0  0  0
   -1.1625   -0.8375    0.0000 O   0  0  0  0  0  0  0  0  0  0  0  0
    1.2042   -0.8375    0.0000 O   0  0  0  0  0  0  0  0  0  0  0  0
   -1.2583    0.8958    0.0000 C   0  0  0  0  0  0  0  0  0  0  0  0
    0.6542    3.3750    0.0000 O   0  0  0  0  0  0  0  0  0  0  0  0
    1.5542    2.2833    0.0000 C   0  0  0  0  0  0  0  0  0  0  0  0
    0.6542   -2.0042    0.0000 C   0  0  0  0  0  0  0  0  0  0  0  0
   -1.5958    2.2708    0.0000 C   0  0  0  0  0  0  0  0  0  0  0  0
   -0.7458    3.3750    0.0000 C   0  0  0  0  0  0  0  0  0  0  0  0
   -0.6958   -2.0042    0.0000 C   0  0  0  0  0  0  0  0  0  0  0  0
    1.7000   -2.8042    0.0000 C   0  0  0  0  0  0  0  0  0  0  0  0
    3.0625   -2.5292    0.0000 N   0  0  0  0  0  0  0  0  0  0  0  0
    2.3542   -0.0292    0.0000 C   0  0  0  0  0  0  0  0  0  0  0  0
   -2.3000   -0.1167    0.0000 C   0  0  0  0  0  0  0  0  0  0  0  0
    2.9375    2.7333    0.0000 C   0  0  0  0  0  0  0  0  0  0  0  0
   -2.9708    2.6583    0.0000 C   0  0  0  0  0  0  0  0  0  0  0  0
    3.9542   -3.5875    0.0000 C   0  0  0  0  0  0  0  0  0  0  0  0
    3.4625   -1.2167    0.0000 C   0  0  0  0  0  0  0  0  0  0  0  0
    3.7000    0.4083    0.0000 C   0  0  0  0  0  0  0  0  0  0  0  0
   -3.6625    0.3000    0.0000 C   0  0  0  0  0  0  0  0  0  0  0  0
    3.9917    1.7875    0.0000 C   0  0  0  0  0  0  0  0  0  0  0  0
   -3.9958    1.6750    0.0000 C   0  0  0  0  0  0  0  0  0  0  0  0
  2  1  1  0
  3  1  1  0
  4  1  1  0
  5  1  1  0
  6  7  1  0
  7  2  2  0
  8  4  1  0
  9  5  2  0
 10  9  1  0
 11  3  1  0
 12  8  1  0
 13 12  1  0
 14  2  1  0
 15  5  1  0
 16  7  1  0
 17  9  1  0
 18 13  1  0
 19 13  1  0
 20 14  2  0
 21 15  2  0
 22 20  1  0
 23 21  1  0
  8 11  1  0
 10  6  1  0
 17 23  2  0
 16 22  2  0
M  END
> <chembl_id>
CHEMBL2107575

> <chembl_pref_name>
SPIROXEPIN

$$$$

     RDKit          2D

 19 21  0  0  0  0  0  0  0  0999 V2000
   -0.7583    0.5208    0.0000 C   0  0  0  0  0  0  0  0  0  0  0  0
    0.0167   -2.6167    0.0000 S   0  0  0  0  0  0  0  0  0  0  0  0
    0.6667    0.5208    0.0000 C   0  0  0  0  0  0  0  0  0  0  0  0
   -1.2833   -2.0000    0.0000 C   0  0  0  0  0  0  0  0  0  0  0  0
   -1.6208   -0.6000    0.0000 C   0  0  0  0  0  0  0  0  0  0  0  0
    1.2917   -1.9792    0.0000 C   0  0  0  0  0  0  0  0  0  0  0  0
    1.5792   -0.5792    0.0000 C   0  0  0  0  0  0  0  0  0  0  0  0
   -1.4083    1.7875    0.0000 C   0  0  0  0  0  0  0  0  0  0  0  0
   -2.7750    1.7875    0.0000 N   0  0  0  0  0  0  0  0  0  0  0  0
   -2.3375   -3.0167    0.0000 C   0  0  0  0  0  0  0  0  0  0  0  0
   -3.0208   -0.2042    0.0000 C   0  0  0  0  0  0  0  0  0  0  0  0
    2.3917   -2.9375    0.0000 C   0  0  0  0  0  0  0  0  0  0  0  0
    2.9792   -0.1250    0.0000 C   0  0  0  0  0  0  0  0  0  0  0  0
   -3.4250    3.0250    0.0000 C   0  0  0  0  0  0  0  0  0  0  0  0
   -3.4583    0.5833    0.0000 C   0  0  0  0  0  0  0  0  0  0  0  0
   -3.7208   -2.6000    0.0000 C   0  0  0  0  0  0  0  0  0  0  0  0
   -4.0625   -1.2000    0.0000 C   0  0  0  0  0  0  0  0  0  0  0  0
    3.7625   -2.4792    0.0000 C   0  0  0  0  0  0  0  0  0  0  0  0
    4.0542   -1.0875    0.0000 C   0  0  0  0  0  0  0  0  0  0  0  0
  2  4  1  0
  3  1  2  0
  4  5  2  0
  5  1  1  0
  6  7  2  0
  7  3  1  0
  8  1  1  0
  9  8  1  0
 10  4  1  0
 11  5  1  0
 12  6  1  0
 13  7  1  0
 14  9  1  0
 15  9  1  0
 16 17  1  0
 17 11  2  0
 18 19  1  0
 19 13  2  0
  2  6  1  0
 10 16  2  0
 12 18  2  0
M  END
> <chembl_id>
CHEMBL2106676

> <chembl_pref_name>
DAMOTEPINE

$$$$

     RDKit          2D

 19 19  0  0  0  0  0  0  0  0999 V2000
   -0.6682    0.2171    0.0000 O   0  0  0  0  0  0  0  0  0  0  0  0
   -0.8013   -1.1030    0.0000 O   0  0  0  0  0  0  0  0  0  0  0  0
    2.8663    0.0936    0.0000 N   0  0  0  0  0  0  0  0  0  0  0  0
    2.7220   -1.2351    0.0000 N   0  0  0  0  0  0  0  0  0  0  0  0
    0.6682    0.2171    0.0000 C   0  0  0  0  0  0  0  0  0  0  0  0
    0.4130   -0.5684    0.0000 C   0  0  0  0  0  0  0  0  0  0  0  0
   -0.4130   -0.5684    0.0000 C   0  0  0  0  0  0  0  0  0  0  0  0
    2.0667   -0.0834    0.0000 C   0  0  0  0  0  0  0  0  0  0  0  0
    1.4534    0.4704    0.0000 C   0  0  0  0  0  0  0  0  0  0  0  0
    0.0000    0.7026    0.0000 C   0  0  0  0  0  0  0  0  0  0  0  0
    1.9686   -0.8965    0.0000 C   0  0  0  0  0  0  0  0  0  0  0  0
    0.8965   -1.2368    0.0000 C   0  0  0  0  0  0  0  0  0  0  0  0
    3.2768   -0.6232    0.0000 C   0  0  0  0  0  0  0  0  0  0  0  0
    3.1336    0.6979    0.0000 C   0  0  0  0  0  0  0  0  0  0  0  0
    0.6269   -1.8401    0.0000 C   0  0  0  0  0  0  0  0  0  0  0  0
    4.7968   -1.1079    0.0000 O   0  0  0  0  0  0  0  0  0  0  0  0
    5.3692   -0.1170    0.0000 O   0  0  0  0  0  0  0  0  0  0  0  0
    5.9415   -1.1079    0.0000 O   0  0  0  0  0  0  0  0  0  0  0  0
    5.3692   -0.7777    0.0000 N   0  0  0  0  0  0  0  0  0  0  0  0
  1  7  1  0
  1 10  1  0
  2  7  2  0
  3  8  1  0
  3 13  1  0
  3 14  1  0
  4 11  1  0
  4 13  2  0
  5  6  1  0
  5  9  1  6
  5 10  1  0
  6  7  1  0
  6 12  1  6
  8  9  1  0
  8 11  2  0
 12 15  1  0
 16 19  1  0
 17 19  1  0
 18 19  2  0
M  CHG  2  16  -1  19   1
M  END
> <chembl_id>
CHEMBL1213136

> <chembl_pref_name>
PILOCARPINE NITRATE

$$$$

     RDKit          2D

 25 28  0  0  1  0  0  0  0  0999 V2000
   -1.2208   -0.3125    0.0000 C   0  0  0  0  0  0  0  0  0  0  0  0
   -2.5208   -1.1167    0.0000 C   0  0  0  0  0  0  0  0  0  0  0  0
    1.4292    1.2333    0.0000 C   0  0  0  0  0  0  0  0  0  0  0  0
   -2.5208   -2.6417    0.0000 C   0  0  0  0  0  0  0  0  0  0  0  0
    0.0792   -1.1167    0.0000 C   0  0  0  0  0  0  0  0  0  0  0  0
    1.4292   -0.3125    0.0000 C   0  0  0  0  0  0  0  0  0  0  0  0
   -1.2208    1.2083    0.0000 C   0  0  0  0  0  0  0  0  0  0  0  0
    0.0792    1.9708    0.0000 C   0  0  0  0  0  0  0  0  0  0  0  0
    2.8167    1.6625    0.0000 C   0  0  0  0  0  0  0  0  0  0  0  0
   -3.8208   -3.4042    0.0000 C   0  0  0  0  0  0  0  0  0  0  0  0
   -3.8208   -0.3125    0.0000 C   0  0  0  0  0  0  0  0  0  0  0  0
    0.0792   -2.6417    0.0000 C   0  0  0  0  0  0  0  0  0  0  0  0
    2.8625   -0.8042    0.0000 C   0  0  0  0  0  0  0  0  0  0  0  0
    3.2625    3.1458    0.0000 O   0  0  0  0  0  0  0  0  0  0  0  0
    4.7625    3.4875    0.0000 C   0  0  0  0  0  0  0  0  0  0  0  0
   -1.2208   -3.4042    0.0000 C   0  0  0  0  0  0  0  0  0  0  0  0
   -5.1125   -2.6417    0.0000 C   0  0  0  0  0  0  0  0  0  0  0  0
    3.7167    0.4458    0.0000 C   0  0  0  0  0  0  0  0  0  0  0  0
    5.2125    4.9542    0.0000 O   0  0  0  0  0  0  0  0  0  0  0  0
   -6.4542   -3.4042    0.0000 O   0  0  0  0  0  0  0  0  0  0  0  0
   -5.1583   -1.1167    0.0000 C   0  0  0  0  0  0  0  0  0  0  0  0
    1.4292    2.8208    0.0000 C   0  0  0  0  0  0  0  0  0  0  0  0
    5.8167    2.3625    0.0000 C   0  0  0  0  0  0  0  0  0  0  0  0
    1.4500   -1.5750    0.0000 H   0  0  0  0  0  0  0  0  0  0  0  0
    0.1292    0.1625    0.0000 H   0  0  0  0  0  0  0  0  0  0  0  0
  2  1  2  0
  3  8  1  0
  4  2  1  0
  5  1  1  0
  6  5  1  0
  7  1  1  0
  8  7  2  0
  9  3  1  0
 10  4  2  0
 11  2  1  0
 12  5  1  0
 13  6  1  0
  9 14  1  1
 15 14  1  0
 16 12  1  0
 17 21  1  0
 18 13  1  0
 19 15  2  0
 20 17  2  0
 21 11  1  0
  3 22  1  1
 23 15  1  0
  6 24  1  6
  5 25  1  1
  6  3  1  0
  4 16  1  0
  9 18  1  0
 10 17  1  0
M  END
> <chembl_id>
CHEMBL1698011

> <chembl_pref_name>
TRENBOLONE ACETATE

$$$$

     RDKit          2D

 68 74  0  0  0  0  0  0  0  0999 V2000
    7.1770   -7.9758    0.0000 C   0  0  0  0  0  0  0  0  0  0  0  0
    6.4688   -8.3991    0.0000 C   0  0  0  0  0  0  0  0  0  0  0  0
    5.7482   -7.9974    0.0000 C   0  0  0  0  0  0  0  0  0  0  0  0
    7.8976   -8.3774    0.0000 C   0  0  0  0  0  0  0  0  0  0  0  0
    7.1645   -7.1509    0.0000 C   0  0  0  0  0  0  0  0  0  0  0  0
   10.7552   -8.3340    0.0000 C   0  0  0  0  0  0  0  0  0  0  0  0
    6.4438   -6.7492    0.0000 C   0  0  0  0  0  0  0  0  0  0  0  0
    5.1436   -8.5587    0.0000 O   0  0  0  0  0  0  0  0  0  0  0  0
    6.4814   -9.2240    0.0000 C   0  0  0  0  0  0  0  0  0  0  0  0
   10.8428  -14.1083    0.0000 C   0  0  0  0  0  0  0  0  0  0  0  0
    5.7357   -7.1725    0.0000 C   0  0  0  0  0  0  0  0  0  0  0  0
   10.7427   -7.5091    0.0000 O   0  0  0  0  0  0  0  0  0  0  0  0
   12.2716  -14.0866    0.0000 C   0  0  0  0  0  0  0  0  0  0  0  0
    9.4015  -13.3051    0.0000 C   0  0  0  0  0  0  0  0  0  0  0  0
    8.6058   -7.9541    0.0000 O   0  0  0  0  0  0  0  0  0  0  0  0
   10.1097  -12.8818    0.0000 O   0  0  0  0  0  0  0  0  0  0  0  0
   12.9923  -14.4883    0.0000 O   0  0  0  0  0  0  0  0  0  0  0  0
    9.4140  -14.1300    0.0000 C   0  0  0  0  0  0  0  0  0  0  0  0
   12.2591  -13.2617    0.0000 C   0  0  0  0  0  0  0  0  0  0  0  0
   10.1347  -14.5316    0.0000 C   0  0  0  0  0  0  0  0  0  0  0  0
   13.6879  -13.2401    0.0000 C   0  0  0  0  0  0  0  0  0  0  0  0
    8.6684  -12.0786    0.0000 C   0  0  0  0  0  0  0  0  0  0  0  0
   10.8303  -13.2834    0.0000 C   0  0  0  0  0  0  0  0  0  0  0  0
   10.0345   -7.9324    0.0000 C   0  0  0  0  0  0  0  0  0  0  0  0
   10.7677   -9.1589    0.0000 O   0  0  0  0  0  0  0  0  0  0  0  0
   12.9672  -12.8384    0.0000 C   0  0  0  0  0  0  0  0  0  0  0  0
   11.4508   -7.0858    0.0000 C   0  0  0  0  0  0  0  0  0  0  0  0
    9.3264   -8.3557    0.0000 C   0  0  0  0  0  0  0  0  0  0  0  0
   13.7004  -14.0650    0.0000 C   0  0  0  0  0  0  0  0  0  0  0  0
    9.3765  -11.6553    0.0000 C   0  0  0  0  0  0  0  0  0  0  0  0
   11.5635  -14.5099    0.0000 O   0  0  0  0  0  0  0  0  0  0  0  0
    8.6809  -12.9035    0.0000 O   0  0  0  0  0  0  0  0  0  0  0  0
    9.3640  -10.8304    0.0000 C   0  0  0  0  0  0  0  0  0  0  0  0
    5.4905   -9.3072    0.0000 C   0  0  0  0  0  0  0  0  0  0  0  0
    7.2020   -9.6256    0.0000 C   0  0  0  0  0  0  0  0  0  0  0  0
    7.9101   -9.2023    0.0000 O   0  0  0  0  0  0  0  0  0  0  0  0
    7.2145  -10.4505    0.0000 C   0  0  0  0  0  0  0  0  0  0  0  0
    9.3389   -9.1806    0.0000 C   0  0  0  0  0  0  0  0  0  0  0  0
   10.0596   -9.5822    0.0000 C   0  0  0  0  0  0  0  0  0  0  0  0
    7.9477  -11.6770    0.0000 C   0  0  0  0  0  0  0  0  0  0  0  0
   12.1714   -7.4874    0.0000 C   0  0  0  0  0  0  0  0  0  0  0  0
    7.9352  -10.8521    0.0000 C   0  0  0  0  0  0  0  0  0  0  0  0
    7.1895   -8.8007    0.0000 O   0  0  0  0  0  0  0  0  0  0  0  0
   11.4758   -8.7356    0.0000 C   0  0  0  0  0  0  0  0  0  0  0  0
   12.1840   -8.3123    0.0000 C   0  0  0  0  0  0  0  0  0  0  0  0
   10.0721  -10.4071    0.0000 C   0  0  0  0  0  0  0  0  0  0  0  0
   11.4383   -6.2609    0.0000 C   0  0  0  0  0  0  0  0  0  0  0  0
    5.0150   -6.7709    0.0000 O   0  0  0  0  0  0  0  0  0  0  0  0
   14.3960  -12.8168    0.0000 O   0  0  0  0  0  0  0  0  0  0  0  0
   10.1472  -15.3565    0.0000 O   0  0  0  0  0  0  0  0  0  0  0  0
   12.9547  -12.0135    0.0000 O   0  0  0  0  0  0  0  0  0  0  0  0
    6.4313   -5.9243    0.0000 C   0  0  0  0  0  0  0  0  0  0  0  0
   10.0971  -12.0569    0.0000 C   0  0  0  0  0  0  0  0  0  0  0  0
   11.5384  -12.8601    0.0000 C   0  0  0  0  0  0  0  0  0  0  0  0
   14.4210  -14.4666    0.0000 C   0  0  0  0  0  0  0  0  0  0  0  0
    7.2396  -12.1003    0.0000 C   0  0  0  0  0  0  0  0  0  0  0  0
   12.8796   -7.0641    0.0000 C   0  0  0  0  0  0  0  0  0  0  0  0
   12.1464   -5.8376    0.0000 C   0  0  0  0  0  0  0  0  0  0  0  0
   10.7176   -5.8593    0.0000 C   0  0  0  0  0  0  0  0  0  0  0  0
    4.9895   -7.6734    0.0000 H   0  0  0  0  0  0  0  0  0  0  0  0
    9.3890  -12.4802    0.0000 H   0  0  0  0  0  0  0  0  0  0  0  0
   12.1589   -6.6625    0.0000 H   0  0  0  0  0  0  0  0  0  0  0  0
   10.7802   -9.9838    0.0000 H   0  0  0  0  0  0  0  0  0  0  0  0
    6.4563   -7.5742    0.0000 H   0  0  0  0  0  0  0  0  0  0  0  0
   12.2841  -14.9116    0.0000 H   0  0  0  0  0  0  0  0  0  0  0  0
    8.6183   -8.7790    0.0000 H   0  0  0  0  0  0  0  0  0  0  0  0
    9.4391  -15.7798    0.0000 C   0  0  0  0  0  0  0  0  0  0  0  0
   12.2340  -11.6119    0.0000 C   0  0  0  0  0  0  0  0  0  0  0  0
  2  1  1  0
  3  2  1  0
  4  1  1  0
  5  1  1  0
  6 24  1  6
  7  5  2  0
  8  3  1  0
  9  2  1  0
 10 20  1  0
 11  7  1  0
  6 12  1  0
 13 31  1  0
 14 32  1  0
 15  4  1  0
 16 14  1  0
 17 13  1  0
 18 14  1  0
 19 13  1  0
 20 18  1  0
 21 26  1  0
 22 40  1  0
 23 16  1  0
 24 28  1  0
 25 39  1  0
 26 19  1  0
 27 12  1  0
 28 15  1  0
 29 17  1  0
 30 33  2  0
 10 31  1  6
 22 32  1  1
 33 46  1  0
 34  9  1  0
 35  9  2  0
 36  4  2  0
 37 35  1  0
 38 28  1  0
 39 38  1  0
 40 42  1  0
 41 45  1  0
 42 37  2  0
  2 43  1  1
  6 44  1  0
 45 44  2  0
 46 39  1  0
 47 27  1  0
 11 48  1  6
 21 49  1  1
 20 50  1  1
 26 51  1  6
 52  7  1  0
 53 30  1  0
 23 54  1  1
 29 55  1  6
 40 56  1  1
 41 57  1  1
 58 47  1  0
 59 47  1  0
  3 60  1  1
 14 61  1  1
 27 62  1  1
 39 63  1  1
  1 64  1  6
 13 65  1  6
  3 11  1  0
  8 34  1  0
  6 25  1  0
 22 30  1  0
 27 41  1  0
 10 23  1  0
 21 29  1  0
 28 66  1  1
 50 67  1  0
 51 68  1  0
M  END
> <chembl_id>
CHEMBL2079552

> <chembl_pref_name>
ABAMECTIN COMPONENT B1B

$$$$

     RDKit          2D

 32 35  0  0  0  0  0  0  0  0999 V2000
   -5.3348    2.4750    0.0000 C   0  0  0  0  0  0  0  0  0  0  0  0
   -5.3359    1.6477    0.0000 C   0  0  0  0  0  0  0  0  0  0  0  0
   -4.6211    1.2348    0.0000 C   0  0  0  0  0  0  0  0  0  0  0  0
   -3.9047    1.6481    0.0000 C   0  0  0  0  0  0  0  0  0  0  0  0
   -3.9075    2.4787    0.0000 C   0  0  0  0  0  0  0  0  0  0  0  0
   -4.6229    2.8878    0.0000 C   0  0  0  0  0  0  0  0  0  0  0  0
   -3.1895    1.2379    0.0000 C   0  0  0  0  0  0  0  0  0  0  0  0
   -2.7782    0.5228    0.0000 C   0  0  0  0  0  0  0  0  0  0  0  0
   -2.4757    1.6504    0.0000 C   0  0  0  0  0  0  0  0  0  0  0  0
   -1.7606    1.2390    0.0000 C   0  0  0  0  0  0  0  0  0  0  0  0
   -3.1938   -0.1903    0.0000 C   0  0  0  0  0  0  0  0  0  0  0  0
   -2.7831   -0.9050    0.0000 C   0  0  0  0  0  0  0  0  0  0  0  0
   -1.9573   -0.9068    0.0000 C   0  0  0  0  0  0  0  0  0  0  0  0
   -1.5437   -0.1880    0.0000 C   0  0  0  0  0  0  0  0  0  0  0  0
   -1.9567    0.5237    0.0000 C   0  0  0  0  0  0  0  0  0  0  0  0
   -1.0468    1.6526    0.0000 C   0  0  0  0  0  0  0  0  0  0  0  0
   -0.3317    1.2413    0.0000 N   0  0  0  0  0  0  0  0  0  0  0  0
   -0.3342    0.4112    0.0000 C   0  0  0  0  0  0  0  0  0  0  0  0
    0.3768   -0.0001    0.0000 C   0  0  0  0  0  0  0  0  0  0  0  0
    1.0931    0.4100    0.0000 C   0  0  0  0  0  0  0  0  0  0  0  0
    1.0938    1.2360    0.0000 C   0  0  0  0  0  0  0  0  0  0  0  0
    0.3782    1.6518    0.0000 C   0  0  0  0  0  0  0  0  0  0  0  0
    1.8066   -0.0041    0.0000 C   0  0  0  0  0  0  0  0  0  0  0  0
    1.7996   -0.8261    0.0000 C   0  0  0  0  0  0  0  0  0  0  0  0
    2.5123   -1.2401    0.0000 C   0  0  0  0  0  0  0  0  0  0  0  0
    3.2287   -0.8291    0.0000 C   0  0  0  0  0  0  0  0  0  0  0  0
    3.2278    0.0002    0.0000 C   0  0  0  0  0  0  0  0  0  0  0  0
    2.5145    0.4104    0.0000 C   0  0  0  0  0  0  0  0  0  0  0  0
    3.9428   -1.2422    0.0000 Cl  0  0  0  0  0  0  0  0  0  0  0  0
    1.8042    0.8292    0.0000 O   0  0  0  0  0  0  0  0  0  0  0  0
   -3.6158    0.5300    0.0000 C   0  0  0  0  0  0  0  0  0  0  0  0
   -4.0399   -0.1774    0.0000 N   0  0  0  0  0  0  0  0  0  0  0  0
  3  4  2  0
 10 16  1  0
  7  8  1  0
 16 17  1  0
 17 18  1  0
  7  9  1  0
  4  5  1  0
  9 10  1  0
  2  3  1  0
 17 22  1  0
 18 19  1  0
 19 20  1  0
 20 21  1  0
 21 22  1  0
  8 11  2  0
 20 23  1  0
  5  6  2  0
 23 24  2  0
 11 12  1  0
 24 25  1  0
  6  1  1  0
 25 26  2  0
 12 13  2  0
 26 27  1  0
  1  2  2  0
 27 28  2  0
 28 23  1  0
 13 14  1  0
 26 29  1  0
  4  7  1  0
 20 30  1  0
 14 15  2  0
  7 31  1  0
 15  8  1  0
 31 32  3  0
M  END
> <chembl_id>
CHEMBL34166

> <chembl_pref_name>
BERLEX COMPOUND

$$$$

     RDKit          2D

 14 14  0  0  0  0  0  0  0  0999 V2000
    4.8250   -2.4792    0.0000 C   0  0  0  0  0  0  0  0  0  0  0  0
    4.1042   -2.8917    0.0000 C   0  0  0  0  0  0  0  0  0  0  0  0
    4.8250   -1.6500    0.0000 C   0  0  0  0  0  0  0  0  0  0  0  0
    5.5417   -2.8917    0.0000 C   0  0  0  0  0  0  0  0  0  0  0  0
    3.3917   -2.4792    0.0000 C   0  0  0  0  0  0  0  0  0  0  0  0
    4.1042   -1.2375    0.0000 C   0  0  0  0  0  0  0  0  0  0  0  0
    3.3917   -1.6500    0.0000 C   0  0  0  0  0  0  0  0  0  0  0  0
    4.1042   -3.7167    0.0000 O   0  0  0  0  0  0  0  0  0  0  0  0
    6.2542   -1.6500    0.0000 N   0  0  0  0  0  0  0  0  0  0  0  0
    5.5417   -3.7167    0.0000 O   0  0  0  0  0  0  0  0  0  0  0  0
    4.1042   -0.4125    0.0000 O   0  0  0  0  0  0  0  0  0  0  0  0
    6.2542   -2.4750    0.0000 C   0  0  0  0  0  0  0  0  0  0  0  0
    3.3917   -4.1292    0.0000 C   0  0  0  0  0  0  0  0  0  0  0  0
    4.8167    0.0000    0.0000 C   0  0  0  0  0  0  0  0  0  0  0  0
  2  1  2  0
  3  1  1  0
  4  1  1  0
  5  2  1  0
  6  3  2  0
  7  6  1  0
  8  2  1  0
  9 12  1  0
 10  4  1  0
 11  6  1  0
 12  4  1  0
 13  8  1  0
 14 11  1  0
  5  7  2  0
M  END
> <chembl_id>
CHEMBL1076

> <chembl_pref_name>
DESGLYMIDODRINE

$$$$

     RDKit          2D

 19 22  0  0  0  0  0  0  0  0999 V2000
   -0.3083   -2.4667    0.0000 N   0  0  0  0  0  0  0  0  0  0  0  0
    0.3792   -2.6417    0.0000 C   0  0  0  0  0  0  0  0  0  0  0  0
    0.6667   -3.3042    0.0000 C   0  0  0  0  0  0  0  0  0  0  0  0
    0.3250   -3.9167    0.0000 N   0  0  0  0  0  0  0  0  0  0  0  0
   -0.8708   -2.9000    0.0000 C   0  0  0  0  0  0  0  0  0  0  0  0
   -0.8833   -3.6167    0.0000 C   0  0  0  0  0  0  0  0  0  0  0  0
   -0.3333   -4.0667    0.0000 C   0  0  0  0  0  0  0  0  0  0  0  0
   -0.4958   -1.7750    0.0000 C   0  0  0  0  0  0  0  0  0  0  0  0
    0.8875   -2.1375    0.0000 C   0  0  0  0  0  0  0  0  0  0  0  0
    0.6875   -1.4625    0.0000 N   0  0  0  0  0  0  0  0  0  0  0  0
    0.8292   -4.4417    0.0000 C   0  0  0  0  0  0  0  0  0  0  0  0
    1.3750   -3.4167    0.0000 C   0  0  0  0  0  0  0  0  0  0  0  0
    1.4625   -4.1250    0.0000 C   0  0  0  0  0  0  0  0  0  0  0  0
   -0.0083   -1.2750    0.0000 C   0  0  0  0  0  0  0  0  0  0  0  0
   -1.5000   -3.9667    0.0000 C   0  0  0  0  0  0  0  0  0  0  0  0
   -1.4750   -2.5417    0.0000 C   0  0  0  0  0  0  0  0  0  0  0  0
    1.1750   -0.9542    0.0000 C   0  0  0  0  0  0  0  0  0  0  0  0
   -2.1083   -3.5917    0.0000 C   0  0  0  0  0  0  0  0  0  0  0  0
   -2.0958   -2.8875    0.0000 C   0  0  0  0  0  0  0  0  0  0  0  0
  2  1  1  0
  3  2  1  0
  4  3  1  0
  5  1  1  0
  6  5  2  0
  7  6  1  0
  8  1  1  0
  9  2  1  0
 10  9  1  0
 11  4  1  0
 12  3  2  0
 13 12  1  0
 14  8  1  0
 15  6  1  0
 16  5  1  0
 17 10  1  0
 18 15  2  0
 19 16  2  0
 10 14  1  0
  4  7  1  0
 19 18  1  0
 11 13  2  0
M  END
> <chembl_id>
CHEMBL336712

> <chembl_pref_name>
APTAZAPINE

$$$$

     RDKit          2D

 30 32  0  0  0  0  0  0  0  0999 V2000
    7.9961  -12.1006    0.0000 N   0  0  0  0  0  0  0  0  0  0  0  0
    7.5827  -11.3783    0.0000 C   0  0  0  0  0  0  0  0  0  0  0  0
    8.8354  -12.1173    0.0000 C   0  0  0  0  0  0  0  0  0  0  0  0
    7.5785  -12.8146    0.0000 C   0  0  0  0  0  0  0  0  0  0  0  0
    9.2362  -12.8271    0.0000 C   0  0  0  0  0  0  0  0  0  0  0  0
    6.3509  -12.0797    0.0000 N   0  0  0  0  0  0  0  0  0  0  0  0
    9.2696  -11.4158    0.0000 C   0  0  0  0  0  0  0  0  0  0  0  0
    6.7685  -11.3657    0.0000 C   0  0  0  0  0  0  0  0  0  0  0  0
    5.1233  -11.3532    0.0000 C   0  0  0  0  0  0  0  0  0  0  0  0
    7.9836  -13.5328    0.0000 C   0  0  0  0  0  0  0  0  0  0  0  0
    8.8103  -13.5453    0.0000 C   0  0  0  0  0  0  0  0  0  0  0  0
    5.5284  -12.0672    0.0000 C   0  0  0  0  0  0  0  0  0  0  0  0
    8.0086  -10.6643    0.0000 O   0  0  0  0  0  0  0  0  0  0  0  0
    8.8813  -10.6893    0.0000 O   0  0  0  0  0  0  0  0  0  0  0  0
    4.3008  -11.3407    0.0000 O   0  0  0  0  0  0  0  0  0  0  0  0
    5.1108  -12.7812    0.0000 C   0  0  0  0  0  0  0  0  0  0  0  0
   10.0880  -11.4409    0.0000 O   0  0  0  0  0  0  0  0  0  0  0  0
    5.5409  -10.6392    0.0000 O   0  0  0  0  0  0  0  0  0  0  0  0
    4.2883  -12.7687    0.0000 C   0  0  0  0  0  0  0  0  0  0  0  0
    3.8749  -13.4952    0.0000 C   0  0  0  0  0  0  0  0  0  0  0  0
    6.3635  -10.6517    0.0000 C   0  0  0  0  0  0  0  0  0  0  0  0
    9.2195  -14.2677    0.0000 C   0  0  0  0  0  0  0  0  0  0  0  0
    7.5577  -14.2552    0.0000 C   0  0  0  0  0  0  0  0  0  0  0  0
    3.0565  -13.4827    0.0000 C   0  0  0  0  0  0  0  0  0  0  0  0
    4.2757  -14.2093    0.0000 C   0  0  0  0  0  0  0  0  0  0  0  0
    7.9669  -14.9608    0.0000 C   0  0  0  0  0  0  0  0  0  0  0  0
    8.7978  -14.9734    0.0000 C   0  0  0  0  0  0  0  0  0  0  0  0
    3.8624  -14.9233    0.0000 C   0  0  0  0  0  0  0  0  0  0  0  0
    2.6306  -14.1967    0.0000 C   0  0  0  0  0  0  0  0  0  0  0  0
    3.0314  -14.9107    0.0000 C   0  0  0  0  0  0  0  0  0  0  0  0
  2  1  1  0
  3  1  1  0
  4  1  1  0
  5  3  1  0
  6  8  1  0
  3  7  1  6
  8  2  1  0
  9 12  1  0
 10  4  1  0
 11 10  2  0
 12  6  1  1
 13  2  2  0
 14  7  2  0
 15  9  2  0
 16 12  1  0
 17  7  1  0
 18  9  1  0
 19 16  1  0
 20 19  1  0
  8 21  1  1
 22 11  1  0
 23 10  1  0
 24 20  2  0
 25 20  1  0
 26 23  2  0
 27 22  2  0
 28 25  2  0
 29 24  1  0
 30 28  1  0
  5 11  1  0
 27 26  1  0
 29 30  2  0
M  END
> <chembl_id>
CHEMBL1733

> <chembl_pref_name>
QUINAPRILAT

$$$$

     RDKit          2D

 28 29  0  0  0  0  0  0  0  0999 V2000
   -0.0833    0.4625    0.0000 C   0  0  0  0  0  0  0  0  0  0  0  0
    1.6500    0.4625    0.0000 C   0  0  0  0  0  0  0  0  0  0  0  0
    0.8000   -0.0500    0.0000 C   0  0  0  0  0  0  0  0  0  0  0  0
   -0.0833    1.4833    0.0000 C   0  0  0  0  0  0  0  0  0  0  0  0
    1.6500    1.4833    0.0000 C   0  0  0  0  0  0  0  0  0  0  0  0
    0.8000    1.9833    0.0000 N   0  0  0  0  0  0  0  0  0  0  0  0
   -1.1458   -1.5792    0.0000 N   0  0  0  0  0  0  0  0  0  0  0  0
    0.8000   -1.0375    0.0000 C   0  0  0  0  0  0  0  0  0  0  0  0
   -0.0833   -1.5667    0.0000 C   0  0  0  0  0  0  0  0  0  0  0  0
   -1.1125    0.2625    0.0000 C   0  0  0  0  0  0  0  0  0  0  0  0
    2.5417   -0.0792    0.0000 C   0  0  0  0  0  0  0  0  0  0  0  0
   -1.6583   -2.7667    0.0000 O   0  0  0  0  0  0  0  0  0  0  0  0
   -1.9208   -1.0792    0.0000 O   0  0  0  0  0  0  0  0  0  0  0  0
   -1.9500    0.5625    0.0000 O   0  0  0  0  0  0  0  0  0  0  0  0
   -1.1125   -0.5792    0.0000 O   0  0  0  0  0  0  0  0  0  0  0  0
    2.5542   -1.0500    0.0000 O   0  0  0  0  0  0  0  0  0  0  0  0
   -3.5875    1.2833    0.0000 O   0  0  0  0  0  0  0  0  0  0  0  0
   -3.5750    0.4500    0.0000 C   0  0  0  0  0  0  0  0  0  0  0  0
   -2.7375   -0.0500    0.0000 C   0  0  0  0  0  0  0  0  0  0  0  0
    3.3917    0.4208    0.0000 O   0  0  0  0  0  0  0  0  0  0  0  0
    2.5417    1.9958    0.0000 C   0  0  0  0  0  0  0  0  0  0  0  0
   -0.9958    1.9833    0.0000 C   0  0  0  0  0  0  0  0  0  0  0  0
    1.6792   -1.5792    0.0000 C   0  0  0  0  0  0  0  0  0  0  0  0
   -0.0833   -2.5667    0.0000 C   0  0  0  0  0  0  0  0  0  0  0  0
   -4.3458   -0.0042    0.0000 C   0  0  0  0  0  0  0  0  0  0  0  0
    4.3417    0.4208    0.0000 C   0  0  0  0  0  0  0  0  0  0  0  0
    1.6792   -2.5667    0.0000 C   0  0  0  0  0  0  0  0  0  0  0  0
    0.8000   -3.0917    0.0000 C   0  0  0  0  0  0  0  0  0  0  0  0
  2  3  1  0
  3  1  1  0
  4  1  2  0
  5  6  1  0
  6  4  1  0
  7  9  1  0
  8  3  1  0
  9  8  2  0
 10  1  1  0
 11  2  1  0
 12  7  1  0
 13  7  2  0
 14 10  1  0
 15 10  2  0
 16 11  2  0
 17 18  2  0
 18 19  1  0
 19 14  1  0
 20 11  1  0
 21  5  1  0
 22  4  1  0
 23  8  1  0
 24  9  1  0
 25 18  1  0
 26 20  1  0
 27 23  2  0
 28 27  1  0
  2  5  2  0
 24 28  2  0
M  CHG  2   7   1  12  -1
M  END
> <chembl_id>
CHEMBL2104030

> <chembl_pref_name>
ARANIDIPINE

$$$$

     RDKit          2D

 30 31  0  0  0  0  0  0  0  0999 V2000
   19.7942   -4.0653    0.0000 C   0  0  0  0  0  0  0  0  0  0  0  0
   20.5060   -3.6567    0.0000 C   0  0  0  0  0  0  0  0  0  0  0  0
   21.2179   -4.0653    0.0000 C   0  0  0  0  0  0  0  0  0  0  0  0
   19.7942   -4.8866    0.0000 C   0  0  0  0  0  0  0  0  0  0  0  0
   19.0824   -3.6567    0.0000 C   0  0  0  0  0  0  0  0  0  0  0  0
   19.0824   -2.8354    0.0000 N   0  0  0  0  0  0  0  0  0  0  0  0
   21.9256   -3.6567    0.0000 C   0  0  0  0  0  0  0  0  0  0  0  0
   21.2179   -4.8866    0.0000 O   0  0  0  0  0  0  0  0  0  0  0  0
   20.5060   -5.2994    0.0000 C   0  0  0  0  0  0  0  0  0  0  0  0
   21.9256   -2.8354    0.0000 O   0  0  0  0  0  0  0  0  0  0  0  0
   22.6374   -4.0653    0.0000 C   0  0  0  0  0  0  0  0  0  0  0  0
   22.6374   -4.8866    0.0000 C   0  0  0  0  0  0  0  0  0  0  0  0
   23.3492   -3.6567    0.0000 C   0  0  0  0  0  0  0  0  0  0  0  0
   24.0611   -4.0653    0.0000 N   0  0  0  0  0  0  0  0  0  0  0  0
   23.3492   -2.8354    0.0000 O   0  0  0  0  0  0  0  0  0  0  0  0
   24.1461   -4.8783    0.0000 C   0  0  0  0  0  0  0  0  0  0  0  0
   24.9496   -5.0482    0.0000 C   0  0  0  0  0  0  0  0  0  0  0  0
   25.3623   -4.3363    0.0000 O   0  0  0  0  0  0  0  0  0  0  0  0
   24.8113   -3.7292    0.0000 C   0  0  0  0  0  0  0  0  0  0  0  0
   24.9794   -2.9253    0.0000 O   0  0  0  0  0  0  0  0  0  0  0  0
   23.5343   -5.4294    0.0000 C   0  0  0  0  0  0  0  0  0  0  0  0
   23.5547   -6.2505    0.0000 C   0  0  0  0  0  0  0  0  0  0  0  0
   22.8547   -6.6730    0.0000 C   0  0  0  0  0  0  0  0  0  0  0  0
   22.8748   -7.4933    0.0000 C   0  0  0  0  0  0  0  0  0  0  0  0
   23.5971   -7.8890    0.0000 C   0  0  0  0  0  0  0  0  0  0  0  0
   24.2966   -7.4542    0.0000 C   0  0  0  0  0  0  0  0  0  0  0  0
   24.2731   -6.6353    0.0000 C   0  0  0  0  0  0  0  0  0  0  0  0
   18.3705   -2.4227    0.0000 N   0  0  0  0  0  0  0  0  0  0  0  0
   17.6563   -2.0141    0.0000 N   0  0  0  0  0  0  0  0  0  0  0  0
   21.2179   -2.4227    0.0000 C   0  0  0  0  0  0  0  0  0  0  0  0
  1  2  1  0
  2  3  1  0
  1  4  1  6
  1  5  1  0
  5  6  1  0
  3  7  1  0
  3  8  1  1
  8  9  1  0
  7 10  1  6
  7 11  1  0
 11 12  1  6
 11 13  1  0
 13 14  1  0
 13 15  2  0
 14 16  1  0
 16 17  1  0
 17 18  1  0
 18 19  1  0
 19 14  1  0
 19 20  2  0
 16 21  1  1
 21 22  1  0
 22 23  2  0
 23 24  1  0
 24 25  2  0
 25 26  1  0
 26 27  2  0
 27 22  1  0
  6 28  2  0
 28 29  2  0
 10 30  1  0
M  CHG  2  28   1  29  -1
M  END
> <chembl_id>
CHEMBL4103949

> <chembl_pref_name>
None

$$$$

     RDKit          2D

 13 12  0  0  0  0  0  0  0  0999 V2000
   -1.0208    2.3083    0.0000 O   0  0  0  0  0  0  0  0  0  0  0  0
    2.1292   -0.4667    0.0000 C   0  0  0  0  0  0  0  0  0  0  0  0
   -2.3833   -0.5000    0.0000 C   0  0  0  0  0  0  0  0  0  0  0  0
    0.6125   -0.4792    0.0000 C   0  0  0  0  0  0  0  0  0  0  0  0
   -0.1083   -1.7917    0.0000 C   0  0  0  0  0  0  0  0  0  0  0  0
   -0.1208    0.8000    0.0000 C   0  0  0  0  0  0  0  0  0  0  0  0
   -1.6208   -1.8000    0.0000 C   0  0  0  0  0  0  0  0  0  0  0  0
   -1.6458    0.7875    0.0000 C   0  0  0  0  0  0  0  0  0  0  0  0
    2.5000    0.9833    0.0000 O   0  0  0  0  0  0  0  0  0  0  0  0
   -3.5458    0.4458    0.0000 O   0  0  0  0  0  0  0  0  0  0  0  0
    2.0000   -1.9792    0.0000 C   0  0  0  0  0  0  0  0  0  0  0  0
    3.6167   -0.7250    0.0000 C   0  0  0  0  0  0  0  0  0  0  0  0
   -3.5375   -1.4792    0.0000 C   0  0  0  0  0  0  0  0  0  0  0  0
  3  8  1  0
  4  2  1  0
  5  4  1  0
  6  4  1  0
  7  5  1  0
  8  6  1  0
  9  2  1  0
 10  3  1  0
 11  2  1  0
 12  2  1  0
 13  3  1  0
  7  3  1  0
M  END
> <chembl_id>
CHEMBL2105614

> <chembl_pref_name>
TERPIN HYDRATE

$$$$

     RDKit          2D

 19 20  0  0  0  0  0  0  0  0999 V2000
   -1.5833    0.0333    0.0000 C   0  0  0  0  0  0  0  0  0  0  0  0
   -2.2458    1.1208    0.0000 C   0  0  0  0  0  0  0  0  0  0  0  0
   -2.2208   -1.0417    0.0000 C   0  0  0  0  0  0  0  0  0  0  0  0
   -3.5000    1.1208    0.0000 C   0  0  0  0  0  0  0  0  0  0  0  0
   -1.6000    2.2083    0.0000 N   0  0  0  0  0  0  0  0  0  0  0  0
   -3.4833   -1.0417    0.0000 C   0  0  0  0  0  0  0  0  0  0  0  0
   -4.1458    0.0208    0.0000 C   0  0  0  0  0  0  0  0  0  0  0  0
   -0.2750    0.0208    0.0000 N   0  0  0  0  0  0  0  0  0  0  0  0
    4.2042    1.2458    0.0000 N   0  0  0  0  0  0  0  0  0  0  0  0
   -4.1000   -2.2000    0.0000 O   0  0  0  0  0  0  0  0  0  0  0  0
   -4.1458    2.2208    0.0000 C   0  0  0  0  0  0  0  0  0  0  0  0
   -2.2583    3.3083    0.0000 C   0  0  0  0  0  0  0  0  0  0  0  0
    3.6000    0.1208    0.0000 C   0  0  0  0  0  0  0  0  0  0  0  0
    0.3792    1.1208    0.0000 C   0  0  0  0  0  0  0  0  0  0  0  0
   -3.4458   -3.3042    0.0000 C   0  0  0  0  0  0  0  0  0  0  0  0
    2.2750    0.1375    0.0000 C   0  0  0  0  0  0  0  0  0  0  0  0
    1.6542    1.1208    0.0000 C   0  0  0  0  0  0  0  0  0  0  0  0
   -3.5000    3.3083    0.0000 C   0  0  0  0  0  0  0  0  0  0  0  0
    4.3042   -0.9417    0.0000 C   0  0  0  0  0  0  0  0  0  0  0  0
  2  1  1  0
  3  1  2  0
  4  2  1  0
  5  2  2  0
  6  3  1  0
  7  6  2  0
  8  1  1  0
  9 13  1  0
 10  6  1  0
 11  4  2  0
 12  5  1  0
 13 16  1  0
 14  8  1  0
 15 10  1  0
 16 17  1  0
 17 14  1  0
 18 12  2  0
 19 13  1  0
  4  7  1  0
 11 18  1  0
M  END
> <chembl_id>
CHEMBL468403

> <chembl_pref_name>
QUINOCIDE

$$$$

     RDKit          2D

 39 42  0  0  0  0  0  0  0  0999 V2000
    0.1114    1.0607    0.0000 K   0  0  0  0  0 15  0  0  0  0  0  0
    3.2593    0.0599    0.0000 C   0  0  0  0  0  0  0  0  0  0  0  0
    2.5057   -0.2756    0.0000 N   0  0  0  0  0  0  0  0  0  0  0  0
    3.8114   -0.5532    0.0000 C   0  0  0  0  0  0  0  0  0  0  0  0
   -2.8593    1.4553    0.0000 S   0  0  0  0  0  0  0  0  0  0  0  0
   -1.6218   -0.6881    0.0000 C   0  0  0  0  0  0  0  0  0  0  0  0
    3.3989   -1.2676    0.0000 N   0  0  0  0  0  0  0  0  0  0  0  0
   -1.1368   -0.0207    0.0000 C   0  0  0  0  0  0  0  0  0  0  0  0
    2.5919   -1.0961    0.0000 C   0  0  0  0  0  0  0  0  0  0  0  0
   -1.1368   -1.3556    0.0000 O   0  0  0  0  0  0  0  0  0  0  0  0
   -0.3522   -0.2756    0.0000 C   0  0  0  0  0  0  0  0  0  0  0  0
   -3.2718    2.1698    0.0000 C   0  0  0  0  0  0  0  0  0  0  0  0
   -2.4468   -0.6881    0.0000 C   0  0  0  0  0  0  0  0  0  0  0  0
   -2.4468    0.7408    0.0000 N   0  0  0  0  0  0  0  0  0  0  0  0
   -0.3522   -1.1006    0.0000 C   0  0  0  0  0  0  0  0  0  0  0  0
    4.6319   -0.4669    0.0000 C   0  0  0  0  0  0  0  0  0  0  0  0
    3.4309    0.8669    0.0000 C   0  0  0  0  0  0  0  0  0  0  0  0
   -2.8593    0.0264    0.0000 C   0  0  0  0  0  0  0  0  0  0  0  0
    5.3855   -0.8025    0.0000 C   0  0  0  0  0  0  0  0  0  0  0  0
    5.2993    0.0180    0.0000 C   0  0  0  0  0  0  0  0  0  0  0  0
    1.7912    0.1369    0.0000 C   0  0  0  0  0  0  0  0  0  0  0  0
   -2.1448    1.8678    0.0000 O   0  0  0  0  0  0  0  0  0  0  0  0
   -3.5737    1.0428    0.0000 O   0  0  0  0  0  0  0  0  0  0  0  0
    0.3623    0.1369    0.0000 C   0  0  0  0  0  0  0  0  0  0  0  0
    1.0767   -0.2756    0.0000 C   0  0  0  0  0  0  0  0  0  0  0  0
    4.2155    1.1219    0.0000 O   0  0  0  0  0  0  0  0  0  0  0  0
   -1.3918    0.7639    0.0000 Br  0  0  0  0  0  0  0  0  0  0  0  0
    0.3623   -1.5131    0.0000 C   0  0  0  0  0  0  0  0  0  0  0  0
   -3.6843    2.8842    0.0000 F   0  0  0  0  0  0  0  0  0  0  0  0
   -2.5573    2.5823    0.0000 F   0  0  0  0  0  0  0  0  0  0  0  0
   -3.9862    1.7573    0.0000 F   0  0  0  0  0  0  0  0  0  0  0  0
    2.8178    1.4189    0.0000 N   0  0  0  0  0  0  0  0  0  0  0  0
    1.0767   -1.1006    0.0000 C   0  0  0  0  0  0  0  0  0  0  0  0
    1.9788   -1.6481    0.0000 C   0  0  0  0  0  0  0  0  0  0  0  0
   -2.8593   -1.4026    0.0000 C   0  0  0  0  0  0  0  0  0  0  0  0
   -3.6843    0.0264    0.0000 C   0  0  0  0  0  0  0  0  0  0  0  0
    2.1503   -2.4551    0.0000 C   0  0  0  0  0  0  0  0  0  0  0  0
   -3.6843   -1.4026    0.0000 C   0  0  0  0  0  0  0  0  0  0  0  0
   -4.0968   -0.6881    0.0000 C   0  0  0  0  0  0  0  0  0  0  0  0
  3  2  1  0
  4  2  2  0
  5 14  1  0
  6  8  2  0
  7  4  1  0
  8 11  1  0
  9  3  1  0
 10 15  1  0
 11 24  2  0
 12  5  1  0
 13  6  1  0
 14 18  1  0
 15 28  2  0
 16  4  1  0
 17  2  1  0
 18 13  2  0
 19 16  1  0
 20 16  1  0
 21  3  1  0
 22  5  2  0
 23  5  2  0
 24 25  1  0
 25 21  1  0
 26 17  2  0
 27  8  1  0
 28 33  1  0
 29 12  1  0
 30 12  1  0
 31 12  1  0
 32 17  1  0
 33 25  2  0
 34  9  1  0
 35 13  1  0
 36 18  1  0
 37 34  1  0
 38 35  2  0
 39 38  1  0
  7  9  2  0
 19 20  1  0
 11 15  1  0
 10  6  1  0
 36 39  2  0
M  CHG  2   1   1  14  -1
M  END
> <chembl_id>
CHEMBL3989726

> <chembl_pref_name>
SAPRISARTAN POTASSIUM

$$$$

     RDKit          2D

 20 22  0  0  0  0  0  0  0  0999 V2000
   -0.8458    1.4375    0.0000 N   0  0  0  0  0  0  0  0  0  0  0  0
    0.2542    0.9083    0.0000 C   0  0  0  0  0  0  0  0  0  0  0  0
   -0.2375   -1.3167    0.0000 C   0  0  0  0  0  0  0  0  0  0  0  0
   -1.9708    0.9083    0.0000 C   0  0  0  0  0  0  0  0  0  0  0  0
   -1.4625   -1.3167    0.0000 C   0  0  0  0  0  0  0  0  0  0  0  0
    0.5375   -0.3292    0.0000 C   0  0  0  0  0  0  0  0  0  0  0  0
   -2.2583   -0.3042    0.0000 C   0  0  0  0  0  0  0  0  0  0  0  0
   -0.8458    2.7458    0.0000 C   0  0  0  0  0  0  0  0  0  0  0  0
    3.2625   -2.4250    0.0000 N   0  0  0  0  0  0  0  0  0  0  0  0
    0.7417   -2.2417    0.0000 C   0  0  0  0  0  0  0  0  0  0  0  0
    1.1542    1.7250    0.0000 C   0  0  0  0  0  0  0  0  0  0  0  0
   -2.8625    1.7583    0.0000 C   0  0  0  0  0  0  0  0  0  0  0  0
    1.7167   -0.7292    0.0000 C   0  0  0  0  0  0  0  0  0  0  0  0
   -3.4375   -0.6667    0.0000 C   0  0  0  0  0  0  0  0  0  0  0  0
    2.1125   -1.6792    0.0000 C   0  0  0  0  0  0  0  0  0  0  0  0
    4.3417   -1.7417    0.0000 C   0  0  0  0  0  0  0  0  0  0  0  0
    2.3792    1.3958    0.0000 C   0  0  0  0  0  0  0  0  0  0  0  0
   -4.0583    1.3958    0.0000 C   0  0  0  0  0  0  0  0  0  0  0  0
    2.6750    0.1458    0.0000 C   0  0  0  0  0  0  0  0  0  0  0  0
   -4.3458    0.1833    0.0000 C   0  0  0  0  0  0  0  0  0  0  0  0
  2  1  1  0
  3  6  1  0
  4  1  1  0
  5  7  1  0
  6  2  2  0
  7  4  2  0
  8  1  1  0
  9 15  1  0
 10  3  1  0
 11  2  1  0
 12  4  1  0
 13  6  1  0
 14  7  1  0
 15 10  1  0
 16  9  1  0
 17 11  2  0
 18 12  2  0
 19 17  1  0
 20 18  1  0
  3  5  2  0
 14 20  2  0
 13 19  2  0
M  END
> <chembl_id>
CHEMBL2104017

> <chembl_pref_name>
AMEZEPINE

$$$$

     RDKit          2D

 23 26  0  0  0  0  0  0  0  0999 V2000
    0.9542    0.6708    0.0000 C   0  0  0  0  0  0  0  0  0  0  0  0
    0.4375   -0.4042    0.0000 C   0  0  0  0  0  0  0  0  0  0  0  0
    0.9417   -1.5167    0.0000 N   0  0  0  0  0  0  0  0  0  0  0  0
    2.1667    0.9333    0.0000 C   0  0  0  0  0  0  0  0  0  0  0  0
    3.1125    0.1833    0.0000 C   0  0  0  0  0  0  0  0  0  0  0  0
    3.1125   -1.0250    0.0000 C   0  0  0  0  0  0  0  0  0  0  0  0
    2.1667   -1.7542    0.0000 C   0  0  0  0  0  0  0  0  0  0  0  0
   -0.7500   -0.3917    0.0000 N   0  0  0  0  0  0  0  0  0  0  0  0
    0.3667    1.7250    0.0000 C   0  0  0  0  0  0  0  0  0  0  0  0
    1.1917    2.6208    0.0000 S   0  0  0  0  0  0  0  0  0  0  0  0
    3.7542   -2.9167    0.0000 S   0  0  0  0  0  0  0  0  0  0  0  0
    4.2125    3.0333    0.0000 N   0  0  0  0  0  0  0  0  0  0  0  0
    4.1167   -1.7542    0.0000 C   0  0  0  0  0  0  0  0  0  0  0  0
    2.2917    2.1458    0.0000 C   0  0  0  0  0  0  0  0  0  0  0  0
    4.2125    1.7583    0.0000 C   0  0  0  0  0  0  0  0  0  0  0  0
    4.2125    0.7000    0.0000 C   0  0  0  0  0  0  0  0  0  0  0  0
   -3.1000   -0.4042    0.0000 N   0  0  0  0  0  0  0  0  0  0  0  0
    2.5792   -2.9417    0.0000 C   0  0  0  0  0  0  0  0  0  0  0  0
   -1.3458   -1.4125    0.0000 C   0  0  0  0  0  0  0  0  0  0  0  0
   -1.3458    0.6583    0.0000 C   0  0  0  0  0  0  0  0  0  0  0  0
   -2.4958    0.6583    0.0000 C   0  0  0  0  0  0  0  0  0  0  0  0
   -2.5625   -1.4125    0.0000 C   0  0  0  0  0  0  0  0  0  0  0  0
   -4.3458   -0.4167    0.0000 C   0  0  0  0  0  0  0  0  0  0  0  0
  2  1  1  0
  3  2  2  0
  4  1  1  0
  5  4  1  0
  6  5  1  0
  7  3  1  0
  8  2  1  0
  9  1  2  0
 10  9  1  0
 11 13  1  0
 12 15  3  0
 13  6  2  0
 14  4  2  0
 15 16  1  0
 16  5  2  0
 17 21  1  0
 18  7  2  0
 19  8  1  0
 20  8  1  0
 21 20  1  0
 22 19  1  0
 23 17  1  0
 14 10  1  0
  7  6  1  0
 22 17  1  0
 18 11  1  0
M  END
> <chembl_id>
CHEMBL2105472

> <chembl_pref_name>
TENILAPINE

$$$$

     RDKit          2D

 21 23  0  0  0  0  0  0  0  0999 V2000
   -3.2816   -4.1668    0.0000 C   0  0  0  0  0  0  0  0  0  0  0  0
   -2.5281   -3.8098    0.0000 C   0  0  0  0  0  0  0  0  0  0  0  0
   -4.0271   -3.8013    0.0000 C   0  0  0  0  0  0  0  0  0  0  0  0
   -2.8491   -2.3445    0.0000 O   0  0  0  0  0  0  0  0  0  0  0  0
   -2.3385   -3.0005    0.0000 C   0  0  0  0  0  0  0  0  0  0  0  0
   -3.2854   -4.9866    0.0000 C   0  0  0  0  0  0  0  0  0  0  0  0
   -4.2055   -2.9872    0.0000 C   0  0  0  0  0  0  0  0  0  0  0  0
   -3.6802   -2.3475    0.0000 C   0  0  0  0  0  0  0  0  0  0  0  0
   -1.8707   -6.6346    0.0000 N   0  0  0  0  0  0  0  0  0  0  0  0
   -2.5757   -5.4027    0.0000 C   0  0  0  0  0  0  0  0  0  0  0  0
   -1.9237   -4.3684    0.0000 C   0  0  0  0  0  0  0  0  0  0  0  0
   -4.6348   -4.3567    0.0000 C   0  0  0  0  0  0  0  0  0  0  0  0
   -2.5786   -6.2266    0.0000 C   0  0  0  0  0  0  0  0  0  0  0  0
   -1.5551   -2.7606    0.0000 C   0  0  0  0  0  0  0  0  0  0  0  0
   -4.9871   -2.7490    0.0000 C   0  0  0  0  0  0  0  0  0  0  0  0
   -1.8727   -7.4625    0.0000 C   0  0  0  0  0  0  0  0  0  0  0  0
   -1.1564   -6.2349    0.0000 C   0  0  0  0  0  0  0  0  0  0  0  0
   -1.1271   -4.1298    0.0000 C   0  0  0  0  0  0  0  0  0  0  0  0
   -5.4191   -4.1063    0.0000 C   0  0  0  0  0  0  0  0  0  0  0  0
   -0.9466   -3.3182    0.0000 C   0  0  0  0  0  0  0  0  0  0  0  0
   -5.5957   -3.3004    0.0000 C   0  0  0  0  0  0  0  0  0  0  0  0
  2  1  1  0
  3  1  1  0
  4  5  1  0
  5  2  2  0
  6  1  2  0
  7  3  1  0
  8  7  1  0
  9 13  1  0
 10  6  1  0
 11  2  1  0
 12  3  2  0
 13 10  1  0
 14  5  1  0
 15  7  2  0
 16  9  1  0
 17  9  1  0
 18 11  2  0
 19 12  1  0
 20 18  1  0
 21 19  2  0
  4  8  1  0
 21 15  1  0
 14 20  2  0
M  END
> <chembl_id>
CHEMBL101740

> <chembl_pref_name>
CIDOXEPIN

$$$$

     RDKit          2D

 25 26  0  0  0  0  0  0  0  0999 V2000
    2.6500    1.4708    0.0000 Cl  0  0  0  0  0  0  0  0  0  0  0  0
   -1.1958    0.9208    0.0000 C   0  0  0  0  0  0  0  0  0  0  0  0
   -0.4000    0.4583    0.0000 N   0  0  0  0  0  0  0  0  0  0  0  0
   -1.1958    1.8333    0.0000 C   0  0  0  0  0  0  0  0  0  0  0  0
   -1.9750    0.4583    0.0000 C   0  0  0  0  0  0  0  0  0  0  0  0
   -2.7625    1.8333    0.0000 C   0  0  0  0  0  0  0  0  0  0  0  0
   -2.7625    0.9208    0.0000 C   0  0  0  0  0  0  0  0  0  0  0  0
   -0.4000   -0.4500    0.0000 C   0  0  0  0  0  0  0  0  0  0  0  0
    1.1792    0.4583    0.0000 C   0  0  0  0  0  0  0  0  0  0  0  0
    2.7542    0.4583    0.0000 N   0  0  0  0  0  0  0  0  0  0  0  0
    0.3917    0.9208    0.0000 C   0  0  0  0  0  0  0  0  0  0  0  0
    1.9625    0.9208    0.0000 C   0  0  0  0  0  0  0  0  0  0  0  0
   -3.5583    2.2875    0.0000 C   0  0  0  0  0  0  0  0  0  0  0  0
   -3.5583    0.4583    0.0000 C   0  0  0  0  0  0  0  0  0  0  0  0
   -1.1958   -0.9125    0.0000 C   0  0  0  0  0  0  0  0  0  0  0  0
    0.3917   -0.9125    0.0000 C   0  0  0  0  0  0  0  0  0  0  0  0
    2.7542   -0.4542    0.0000 C   0  0  0  0  0  0  0  0  0  0  0  0
    3.5417    0.9208    0.0000 C   0  0  0  0  0  0  0  0  0  0  0  0
    3.5417   -0.9167    0.0000 C   0  0  0  0  0  0  0  0  0  0  0  0
    4.3417    0.4583    0.0000 C   0  0  0  0  0  0  0  0  0  0  0  0
   -4.3458    0.9208    0.0000 C   0  0  0  0  0  0  0  0  0  0  0  0
   -4.3458    1.8333    0.0000 C   0  0  0  0  0  0  0  0  0  0  0  0
    0.3917   -1.8292    0.0000 C   0  0  0  0  0  0  0  0  0  0  0  0
   -1.1958   -1.8292    0.0000 C   0  0  0  0  0  0  0  0  0  0  0  0
   -0.4000   -2.2792    0.0000 C   0  0  0  0  0  0  0  0  0  0  0  0
  3  2  1  0
  4  2  1  0
  5  2  1  0
  6  4  1  0
  7  5  1  0
  8  3  1  0
  9 11  1  0
 10 12  1  0
 11  3  1  0
 12  9  1  0
 13  6  1  0
 14  7  1  0
 15  8  1  0
 16  8  2  0
 17 10  1  0
 18 10  1  0
 19 17  1  0
 20 18  1  0
 21 14  2  0
 22 13  2  0
 23 16  1  0
 24 15  2  0
 25 24  1  0
  6  7  2  0
 22 21  1  0
 23 25  2  0
M  END
> <chembl_id>
CHEMBL2104501

> <chembl_pref_name>
APRINDINE HYDROCHLORIDE

$$$$
 
     RDKit          2D

 51 57  0  0  0  0  0  0  0  0999 V2000
   -0.3635   -1.6621    0.0000 N   0  0  0  0  0  0  0  0  0  0  0  0
   -1.0310   -1.1772    0.0000 C   0  0  0  0  0  0  0  0  0  0  0  0
   -0.7760   -0.3924    0.0000 C   0  0  0  0  0  0  0  0  0  0  0  0
    0.0489   -0.3924    0.0000 N   0  0  0  0  0  0  0  0  0  0  0  0
    0.3039   -1.1772    0.0000 N   0  0  0  0  0  0  0  0  0  0  0  0
   -1.8381   -1.3487    0.0000 C   0  0  0  0  0  0  0  0  0  0  0  0
   -2.3902   -0.7355    0.0000 N   0  0  0  0  0  0  0  0  0  0  0  0
   -2.1352    0.0491    0.0000 C   0  0  0  0  0  0  0  0  0  0  0  0
   -1.3282    0.2207    0.0000 C   0  0  0  0  0  0  0  0  0  0  0  0
   -2.6852    0.6608    0.0000 C   0  0  0  0  0  0  0  0  0  0  0  0
   -2.4305    1.4458    0.0000 C   0  0  0  0  0  0  0  0  0  0  0  0
   -1.6278    1.6183    0.0000 C   0  0  0  0  0  0  0  0  0  0  0  0
   -1.0724    1.0088    0.0000 C   0  0  0  0  0  0  0  0  0  0  0  0
   -3.4824    0.4472    0.0000 F   0  0  0  0  0  0  0  0  0  0  0  0
   -1.4142    2.4152    0.0000 C   0  0  0  0  0  0  0  0  0  0  0  0
   -3.0139    2.0293    0.0000 C   0  0  0  0  0  0  0  0  0  0  0  0
    0.4616    0.3222    0.0000 C   0  0  0  0  0  0  0  0  0  0  0  0
    0.0489    1.0368    0.0000 C   0  0  0  0  0  0  0  0  0  0  0  0
    0.4616    1.7514    0.0000 C   0  0  0  0  0  0  0  0  0  0  0  0
    1.2868    1.7514    0.0000 N   0  0  0  0  0  0  0  0  0  0  0  0
    1.6993    1.0368    0.0000 C   0  0  0  0  0  0  0  0  0  0  0  0
    1.2868    0.3222    0.0000 C   0  0  0  0  0  0  0  0  0  0  0  0
    1.6993    2.4661    0.0000 C   0  0  0  0  0  0  0  0  0  0  0  0
    1.2868    3.1808    0.0000 O   0  0  0  0  0  0  0  0  0  0  0  0
    2.5246    2.4661    0.0000 C   0  0  0  0  0  0  0  0  0  0  0  0
    2.9371    3.1808    0.0000 C   0  0  0  0  0  0  0  0  0  0  0  0
    3.7624    3.1808    0.0000 C   0  0  0  0  0  0  0  0  0  0  0  0
    2.5246    1.0368    0.0000 C   0  0  0  0  0  0  0  0  0  0  0  0
    2.9371    0.3222    0.0000 C   0  0  0  0  0  0  0  0  0  0  0  0
    3.3498   -0.3924    0.0000 N   0  0  0  0  0  0  0  0  0  0  0  0
   -2.0517   -2.1458    0.0000 O   0  0  0  0  0  0  0  0  0  0  0  0
   -2.8488   -2.3594    0.0000 C   0  0  0  0  0  0  0  0  0  0  0  0
   -3.0623   -3.1565    0.0000 C   0  0  0  0  0  0  0  0  0  0  0  0
   -3.4323   -1.7758    0.0000 C   0  0  0  0  0  0  0  0  0  0  0  0
   -2.5433   -3.7974    0.0000 N   0  0  0  0  0  0  0  0  0  0  0  0
   -2.9925   -4.4892    0.0000 C   0  0  0  0  0  0  0  0  0  0  0  0
   -3.7892   -4.2758    0.0000 C   0  0  0  0  0  0  0  0  0  0  0  0
   -3.8323   -3.4520    0.0000 C   0  0  0  0  0  0  0  0  0  0  0  0
   -1.7181   -3.7974    0.0000 C   0  0  0  0  0  0  0  0  0  0  0  0
    4.1750    3.8954    0.0000 O   0  0  0  0  0  0  0  0  0  0  0  0
    5.0002    3.8954    0.0000 C   0  0  0  0  0  0  0  0  0  0  0  0
   -2.2652   -2.9429    0.0000 H   0  0  0  0  0  0  0  0  0  0  0  0
   -3.8286    1.9002    0.0000 N   0  0  0  0  0  0  0  0  0  0  0  0
   -4.2032    2.6352    0.0000 N   0  0  0  0  0  0  0  0  0  0  0  0
   -3.6199    3.2184    0.0000 C   0  0  0  0  0  0  0  0  0  0  0  0
   -2.8849    2.8439    0.0000 C   0  0  0  0  0  0  0  0  0  0  0  0
   -3.6624    4.0397    0.0000 C   0  0  0  0  0  0  0  0  0  0  0  0
   -2.9706    4.4892    0.0000 C   0  0  0  0  0  0  0  0  0  0  0  0
   -2.2385    4.1181    0.0000 C   0  0  0  0  0  0  0  0  0  0  0  0
   -2.1904    3.2953    0.0000 C   0  0  0  0  0  0  0  0  0  0  0  0
   -5.0002    2.8488    0.0000 C   0  0  0  0  0  0  0  0  0  0  0  0
  1  2  1  0
  2  3  2  0
  3  4  1  0
  4  5  1  0
  5  1  2  0
  2  6  1  0
  7  6  2  0
  8  7  1  0
  9  8  2  0
  3  9  1  0
  8 10  1  0
 11 10  2  0
 12 11  1  0
 13 12  2  0
  9 13  1  0
 10 14  1  0
 12 15  1  0
 16 11  1  0
 17  4  1  1
 17 18  1  0
 19 18  1  0
 20 19  1  0
 21 20  1  0
 17 22  1  0
 22 21  1  0
 20 23  1  0
 23 24  2  0
 23 25  1  0
 25 26  2  0
 26 27  1  0
 21 28  1  6
 28 29  1  0
 29 30  3  0
  6 31  1  0
 31 32  1  0
 33 32  1  0
 32 34  1  6
 35 33  1  0
 35 36  1  0
 36 37  1  0
 37 38  1  0
 33 38  1  0
 35 39  1  0
 27 40  1  0
 40 41  1  0
 33 42  1  6
 43 16  2  0
 43 44  1  0
 44 45  1  0
 45 46  2  0
 46 16  1  0
 45 47  1  0
 48 47  2  0
 49 48  1  0
 50 49  2  0
 46 50  1  0
 44 51  1  0
M  END
> <chembl_id>
CHEMBL5272063

> <chembl_pref_name>
None

$$$$

     RDKit          2D

 26 27  0  0  0  0  0  0  0  0999 V2000
   -1.1333    0.4125    0.0000 C   0  0  0  0  0  0  0  0  0  0  0  0
    0.7292    1.0125    0.0000 C   0  0  0  0  0  0  0  0  0  0  0  0
   -0.0250    0.1750    0.0000 C   0  0  0  0  0  0  0  0  0  0  0  0
   -1.4833    1.4875    0.0000 C   0  0  0  0  0  0  0  0  0  0  0  0
    0.3875    2.0958    0.0000 C   0  0  0  0  0  0  0  0  0  0  0  0
   -0.7208    2.3333    0.0000 N   0  0  0  0  0  0  0  0  0  0  0  0
    0.3167   -0.9000    0.0000 C   0  0  0  0  0  0  0  0  0  0  0  0
    1.8375    0.7750    0.0000 C   0  0  0  0  0  0  0  0  0  0  0  0
   -1.8958   -0.4250    0.0000 C   0  0  0  0  0  0  0  0  0  0  0  0
    1.4292   -1.1375    0.0000 C   0  0  0  0  0  0  0  0  0  0  0  0
    2.3167   -0.4417    0.0000 O   0  0  0  0  0  0  0  0  0  0  0  0
    3.3667   -0.8750    0.0000 C   0  0  0  0  0  0  0  0  0  0  0  0
    2.0792    0.0208    0.0000 O   0  0  0  0  0  0  0  0  0  0  0  0
   -1.5458   -1.5000    0.0000 O   0  0  0  0  0  0  0  0  0  0  0  0
    4.2625   -0.1792    0.0000 F   0  0  0  0  0  0  0  0  0  0  0  0
    3.5167   -1.9917    0.0000 F   0  0  0  0  0  0  0  0  0  0  0  0
   -2.9958   -0.1875    0.0000 O   0  0  0  0  0  0  0  0  0  0  0  0
    2.6000    1.6208    0.0000 O   0  0  0  0  0  0  0  0  0  0  0  0
    1.1417    2.9333    0.0000 C   0  0  0  0  0  0  0  0  0  0  0  0
   -2.5833    1.7333    0.0000 C   0  0  0  0  0  0  0  0  0  0  0  0
   -0.4375   -1.7375    0.0000 C   0  0  0  0  0  0  0  0  0  0  0  0
    1.7750   -2.2167    0.0000 C   0  0  0  0  0  0  0  0  0  0  0  0
   -3.7583   -1.0250    0.0000 C   0  0  0  0  0  0  0  0  0  0  0  0
    3.7042    1.3750    0.0000 C   0  0  0  0  0  0  0  0  0  0  0  0
   -0.0958   -2.8167    0.0000 C   0  0  0  0  0  0  0  0  0  0  0  0
    1.0167   -3.0542    0.0000 C   0  0  0  0  0  0  0  0  0  0  0  0
  2  3  1  0
  3  1  1  0
  4  1  2  0
  5  6  1  0
  6  4  1  0
  7  3  1  0
  8  2  1  0
  9  1  1  0
 10  7  2  0
 11 10  1  0
 12 11  1  0
 13  8  2  0
 14  9  2  0
 15 12  1  0
 16 12  1  0
 17  9  1  0
 18  8  1  0
 19  5  1  0
 20  4  1  0
 21  7  1  0
 22 10  1  0
 23 17  1  0
 24 18  1  0
 25 21  2  0
 26 25  1  0
  2  5  2  0
 22 26  2  0
M  END
> <chembl_id>
CHEMBL1891684

> <chembl_pref_name>
RIODIPINE

$$$$

     RDKit          2D

 26 28  0  0  0  0  0  0  0  0999 V2000
    3.3542    1.2583    0.0000 C   0  0  0  0  0  0  0  0  0  0  0  0
    3.3542   -0.8292    0.0000 C   0  0  0  0  0  0  0  0  0  0  0  0
    2.4542    0.7333    0.0000 C   0  0  0  0  0  0  0  0  0  0  0  0
    2.4542   -0.3042    0.0000 C   0  0  0  0  0  0  0  0  0  0  0  0
    3.3542    2.3000    0.0000 O   0  0  0  0  0  0  0  0  0  0  0  0
    3.3542   -1.8750    0.0000 O   0  0  0  0  0  0  0  0  0  0  0  0
    4.2625   -0.3042    0.0000 O   0  0  0  0  0  0  0  0  0  0  0  0
    4.2625    0.7333    0.0000 O   0  0  0  0  0  0  0  0  0  0  0  0
   -1.1625   -0.0500    0.0000 C   0  0  0  0  0  0  0  0  0  0  0  0
   -1.5750    0.9625    0.0000 N   0  0  0  0  0  0  0  0  0  0  0  0
   -1.5750   -1.1167    0.0000 C   0  0  0  0  0  0  0  0  0  0  0  0
   -2.1958   -0.6542    0.0000 C   0  0  0  0  0  0  0  0  0  0  0  0
   -0.1708   -0.3542    0.0000 C   0  0  0  0  0  0  0  0  0  0  0  0
   -2.4625   -1.7417    0.0000 C   0  0  0  0  0  0  0  0  0  0  0  0
    0.2292   -1.1792    0.0000 C   0  0  0  0  0  0  0  0  0  0  0  0
   -0.6333   -1.4750    0.0000 C   0  0  0  0  0  0  0  0  0  0  0  0
   -0.3583    0.8208    0.0000 C   0  0  0  0  0  0  0  0  0  0  0  0
   -3.0083    0.1083    0.0000 C   0  0  0  0  0  0  0  0  0  0  0  0
    0.3292    0.4000    0.0000 C   0  0  0  0  0  0  0  0  0  0  0  0
   -3.5375   -2.0625    0.0000 C   0  0  0  0  0  0  0  0  0  0  0  0
    1.1375   -1.2375    0.0000 C   0  0  0  0  0  0  0  0  0  0  0  0
   -4.0833   -0.2000    0.0000 C   0  0  0  0  0  0  0  0  0  0  0  0
    1.2375    0.3458    0.0000 C   0  0  0  0  0  0  0  0  0  0  0  0
   -4.3458   -1.2917    0.0000 C   0  0  0  0  0  0  0  0  0  0  0  0
    1.6417   -0.4792    0.0000 C   0  0  0  0  0  0  0  0  0  0  0  0
   -1.4833   -2.2167    0.0000 H   0  0  0  0  0  0  0  0  0  0  0  0
  2  4  1  0
  3  1  1  0
  4  3  2  0
  5  1  2  0
  6  2  2  0
  7  2  1  0
  8  1  1  0
 10  9  1  0
 11 10  1  0
 12  9  1  0
 13  9  1  0
 14 12  2  0
 15 13  2  0
 16 15  1  0
  9 17  1  6
 18 12  1  0
 19 13  1  0
 20 14  1  0
 21 15  1  0
 22 18  2  0
 23 19  2  0
 24 20  2  0
 25 21  2  0
 11 26  1  1
 14 11  1  0
 11 16  1  0
 23 25  1  0
 22 24  1  0
M  END
> <chembl_id>
CHEMBL344151

> <chembl_pref_name>
DIZOCILPINE MALEATE

$$$$

     RDKit          2D

 26 30  0  0  1  0  0  0  0  0999 V2000
    3.2542   -2.3542    0.0000 N   0  0  0  0  0  0  0  0  0  0  0  0
    4.6792   -2.3417    0.0000 C   0  0  0  0  0  0  0  0  0  0  0  0
    3.2417   -1.5292    0.0000 C   0  0  0  0  0  0  0  0  0  0  0  0
    4.6792   -1.5125    0.0000 C   0  0  0  0  0  0  0  0  0  0  0  0
    3.9750   -2.7667    0.0000 C   0  0  0  0  0  0  0  0  0  0  0  0
    1.8042   -1.5417    0.0000 C   0  0  0  0  0  0  0  0  0  0  0  0
    3.9542   -1.1042    0.0000 C   0  0  0  0  0  0  0  0  0  0  0  0
    5.3917   -1.0875    0.0000 C   0  0  0  0  0  0  0  0  0  0  0  0
    1.8125   -2.3792    0.0000 C   0  0  0  0  0  0  0  0  0  0  0  0
    1.0875   -1.1375    0.0000 N   0  0  0  0  0  0  0  0  0  0  0  0
    2.5417   -2.7917    0.0000 C   0  0  0  0  0  0  0  0  0  0  0  0
    6.1167   -1.5000    0.0000 C   0  0  0  0  0  0  0  0  0  0  0  0
    5.4042   -2.7500    0.0000 C   0  0  0  0  0  0  0  0  0  0  0  0
    6.1167   -2.3292    0.0000 O   0  0  0  0  0  0  0  0  0  0  0  0
    1.0917   -2.7917    0.0000 C   0  0  0  0  0  0  0  0  0  0  0  0
    0.3792   -1.5542    0.0000 C   0  0  0  0  0  0  0  0  0  0  0  0
    3.9792   -3.5917    0.0000 O   0  0  0  0  0  0  0  0  0  0  0  0
    6.1042   -0.6667    0.0000 O   0  0  0  0  0  0  0  0  0  0  0  0
    0.3792   -2.3792    0.0000 C   0  0  0  0  0  0  0  0  0  0  0  0
    6.8167   -1.0792    0.0000 O   0  0  0  0  0  0  0  0  0  0  0  0
    5.3792   -0.2625    0.0000 C   0  0  0  0  0  0  0  0  0  0  0  0
   -0.3375   -1.1417    0.0000 C   0  0  0  0  0  0  0  0  0  0  0  0
   -0.3375   -2.7917    0.0000 C   0  0  0  0  0  0  0  0  0  0  0  0
    6.0917    0.1583    0.0000 C   0  0  0  0  0  0  0  0  0  0  0  0
   -1.0500   -2.3792    0.0000 C   0  0  0  0  0  0  0  0  0  0  0  0
   -1.0500   -1.5542    0.0000 C   0  0  0  0  0  0  0  0  0  0  0  0
  2  5  1  0
  3  1  1  0
  4  2  2  0
  5  1  1  0
  6  3  1  0
  7  3  2  0
  8  4  1  0
  9 11  1  0
 10  6  2  0
 11  1  1  0
 12 14  1  0
 13  2  1  0
 14 13  1  0
 15  9  2  0
 16 10  1  0
 17  5  2  0
  8 18  1  6
 19 15  1  0
 20 12  2  0
 21  8  1  0
 22 16  2  0
 23 19  2  0
 24 21  1  0
 25 23  1  0
 26 22  1  0
  9  6  1  0
  7  4  1  0
 19 16  1  0
  8 12  1  0
 25 26  2  0
M  END
> <chembl_id>
CHEMBL65

> <chembl_pref_name>
CAMPTOTHECIN

$$$$

     RDKit          2D

 18 21  0  0  0  0  0  0  0  0999 V2000
    0.0600    0.7200    0.0000 C   0  0  0  0  0  0  0  0  0  0  0  0
   -0.5400    2.2100    0.0000 N   0  0  0  0  0  0  0  0  0  0  0  0
   -0.5400   -0.8500    0.0000 C   0  0  0  0  0  0  0  0  0  0  0  0
   -1.4500   -0.1700    0.0000 C   0  0  0  0  0  0  0  0  0  0  0  0
    1.5200    0.2600    0.0000 C   0  0  0  0  0  0  0  0  0  0  0  0
   -1.8500   -1.7700    0.0000 C   0  0  0  0  0  0  0  0  0  0  0  0
    2.1100   -0.9300    0.0000 C   0  0  0  0  0  0  0  0  0  0  0  0
    0.8500   -1.3700    0.0000 C   0  0  0  0  0  0  0  0  0  0  0  0
    0.8771    1.5989    0.0000 C   0  0  0  0  0  0  0  0  0  0  0  0
   -2.6500    0.9600    0.0000 C   0  0  0  0  0  0  0  0  0  0  0  0
    2.2700    1.3800    0.0000 C   0  0  0  0  0  0  0  0  0  0  0  0
   -3.4300   -2.2400    0.0000 C   0  0  0  0  0  0  0  0  0  0  0  0
    3.4600   -1.0200    0.0000 C   0  0  0  0  0  0  0  0  0  0  0  0
   -4.2400    0.5000    0.0000 C   0  0  0  0  0  0  0  0  0  0  0  0
   -4.6300   -1.1000    0.0000 C   0  0  0  0  0  0  0  0  0  0  0  0
    3.6100    1.3000    0.0000 C   0  0  0  0  0  0  0  0  0  0  0  0
    4.2100    0.0900    0.0000 C   0  0  0  0  0  0  0  0  0  0  0  0
   -0.4132   -1.8419    0.0000 H   0  0  0  0  0  0  0  0  0  0  0  0
  1  2  1  0
  3  2  1  0
  1  4  1  0
  1  5  1  0
  3  6  1  0
  4  6  2  0
  5  7  1  0
  3  8  1  0
  7  8  1  0
  1  9  1  6
  4 10  1  0
  5 11  2  0
  6 12  1  0
  7 13  2  0
 10 14  2  0
 12 15  2  0
 14 15  1  0
 11 16  1  0
 13 17  1  0
 16 17  2  0
  3 18  1  1
M  END
> <chembl_id>
CHEMBL284237

> <chembl_pref_name>
DIZOCILPINE

$$$$

     RDKit          2D

 10 10  0  0  0  0  0  0  0  0999 V2000
    1.6042    0.6083    0.0000 C   0  0  0  0  0  0  0  0  0  0  0  0
    0.9125   -0.5667    0.0000 N   0  0  0  0  0  0  0  0  0  0  0  0
    3.0125    0.6083    0.0000 O   0  0  0  0  0  0  0  0  0  0  0  0
   -0.1000   -0.5667    0.0000 C   0  0  0  0  0  0  0  0  0  0  0  0
    1.0250    1.8833    0.0000 C   0  0  0  0  0  0  0  0  0  0  0  0
   -0.8958   -1.8792    0.0000 C   0  0  0  0  0  0  0  0  0  0  0  0
   -0.8625    0.7375    0.0000 C   0  0  0  0  0  0  0  0  0  0  0  0
   -2.3958    0.7375    0.0000 C   0  0  0  0  0  0  0  0  0  0  0  0
   -2.4250   -1.8792    0.0000 C   0  0  0  0  0  0  0  0  0  0  0  0
   -3.1708   -0.5667    0.0000 C   0  0  0  0  0  0  0  0  0  0  0  0
  2  1  1  0
  3  1  2  0
  4  2  1  0
  5  1  1  0
  6  4  1  0
  7  4  2  0
  8  7  1  0
  9  6  2  0
 10  8  2  0
  9 10  1  0
M  END
> <chembl_id>
CHEMBL269644

> <chembl_pref_name>
ACETANILIDE

$$$$

     RDKit          2D

 27 29  0  0  0  0  0  0  0  0999 V2000
    5.2167   -9.8625    0.0000 C   0  0  0  0  0  0  0  0  0  0  0  0
    6.9542  -10.8542    0.0000 C   0  0  0  0  0  0  0  0  0  0  0  0
    5.7917  -10.8750    0.0000 C   0  0  0  0  0  0  0  0  0  0  0  0
    5.2167  -11.8875    0.0000 C   0  0  0  0  0  0  0  0  0  0  0  0
    5.7917  -12.9042    0.0000 C   0  0  0  0  0  0  0  0  0  0  0  0
    5.7917   -8.8792    0.0000 C   0  0  0  0  0  0  0  0  0  0  0  0
    7.5167   -9.8917    0.0000 C   0  0  0  0  0  0  0  0  0  0  0  0
    6.9417   -8.8792    0.0000 N   0  0  0  0  0  0  0  0  0  0  0  0
    5.2167  -13.9167    0.0000 C   0  0  0  0  0  0  0  0  0  0  0  0
    6.9417  -13.1750    0.0000 N   0  0  0  0  0  0  0  0  0  0  0  0
    7.1125  -14.2917    0.0000 O   0  0  0  0  0  0  0  0  0  0  0  0
    6.0292  -14.7625    0.0000 N   0  0  0  0  0  0  0  0  0  0  0  0
    7.5875  -11.6125    0.0000 C   0  0  0  0  0  0  0  0  0  0  0  0
    4.1542   -9.8625    0.0000 C   0  0  0  0  0  0  0  0  0  0  0  0
    4.0667  -11.8875    0.0000 C   0  0  0  0  0  0  0  0  0  0  0  0
    3.4917  -12.9042    0.0000 C   0  0  0  0  0  0  0  0  0  0  0  0
    4.0667  -13.9167    0.0000 C   0  0  0  0  0  0  0  0  0  0  0  0
    7.1500  -12.3625    0.0000 O   0  0  0  0  0  0  0  0  0  0  0  0
    3.5917   -8.8417    0.0000 O   0  0  0  0  0  0  0  0  0  0  0  0
    3.5625  -10.8250    0.0000 O   0  0  0  0  0  0  0  0  0  0  0  0
    8.7417  -11.6750    0.0000 O   0  0  0  0  0  0  0  0  0  0  0  0
    8.7375   -9.8917    0.0000 C   0  0  0  0  0  0  0  0  0  0  0  0
    5.2167   -7.8667    0.0000 C   0  0  0  0  0  0  0  0  0  0  0  0
    2.4250  -10.7917    0.0000 C   0  0  0  0  0  0  0  0  0  0  0  0
    9.2792  -12.9375    0.0000 C   0  0  0  0  0  0  0  0  0  0  0  0
    1.8167  -11.8375    0.0000 C   0  0  0  0  0  0  0  0  0  0  0  0
   10.4250  -12.9375    0.0000 C   0  0  0  0  0  0  0  0  0  0  0  0
  2  3  1  0
  3  1  1  0
  4  3  1  0
  5  4  1  0
  6  1  2  0
  7  8  1  0
  8  6  1  0
  9  5  1  0
 10  5  2  0
 11 10  1  0
 12  9  2  0
 13  2  1  0
 14  1  1  0
 15  4  2  0
 16 15  1  0
 17 16  2  0
 18 13  2  0
 19 14  2  0
 20 14  1  0
 21 13  1  0
 22  7  1  0
 23  6  1  0
 24 20  1  0
 25 21  1  0
 26 24  1  0
 27 25  1  0
  2  7  2  0
  9 17  1  0
 12 11  1  0
M  END
> <chembl_id>
CHEMBL2104154

> <chembl_pref_name>
DARODIPINE

$$$$

     RDKit          2D

 27 29  0  0  1  0  0  0  0  0999 V2000
    1.8500   -0.8667    0.0000 N   0  0  0  0  0  0  0  0  0  0  0  0
    1.0250   -1.1250    0.0000 C   0  0  0  0  0  0  0  0  0  0  0  0
    2.1125   -0.0500    0.0000 C   0  0  0  0  0  0  0  0  0  0  0  0
    2.9792   -0.0292    0.0000 C   0  0  0  0  0  0  0  0  0  0  0  0
    3.2542   -0.8542    0.0000 N   0  0  0  0  0  0  0  0  0  0  0  0
    0.7542   -1.9667    0.0000 C   0  0  0  0  0  0  0  0  0  0  0  0
    2.5417   -1.3542    0.0000 C   0  0  0  0  0  0  0  0  0  0  0  0
    0.3167   -0.6292    0.0000 O   0  0  0  0  0  0  0  0  0  0  0  0
   -0.3708   -1.1292    0.0000 C   0  0  0  0  0  0  0  0  0  0  0  0
   -0.1000   -1.9667    0.0000 C   0  0  0  0  0  0  0  0  0  0  0  0
    3.4042    0.6958    0.0000 C   0  0  0  0  0  0  0  0  0  0  0  0
    1.6750    0.6875    0.0000 N   0  0  0  0  0  0  0  0  0  0  0  0
    2.9667    1.4458    0.0000 N   0  0  0  0  0  0  0  0  0  0  0  0
   -3.4083    2.1583    0.0000 C   0  0  0  0  0  0  0  0  0  0  0  0
   -1.1833   -0.8792    0.0000 C   0  0  0  0  0  0  0  0  0  0  0  0
    2.0917    1.4375    0.0000 C   0  0  0  0  0  0  0  0  0  0  0  0
   -4.2375    2.4208    0.0000 O   0  0  0  0  0  0  0  0  0  0  0  0
   -3.2208    1.3208    0.0000 C   0  0  0  0  0  0  0  0  0  0  0  0
    1.2792   -2.6667    0.0000 O   0  0  0  0  0  0  0  0  0  0  0  0
   -2.3750    1.0458    0.0000 C   0  0  0  0  0  0  0  0  0  0  0  0
    4.2792    0.7083    0.0000 N   0  0  0  0  0  0  0  0  0  0  0  0
   -0.6000   -2.6750    0.0000 O   0  0  0  0  0  0  0  0  0  0  0  0
   -2.7708    2.7375    0.0000 O   0  0  0  0  0  0  0  0  0  0  0  0
   -3.8458    0.7250    0.0000 N   0  0  0  0  0  0  0  0  0  0  0  0
   -1.3708   -0.0292    0.0000 C   0  0  0  0  0  0  0  0  0  0  0  0
   -2.1958    0.2000    0.0000 C   0  0  0  0  0  0  0  0  0  0  0  0
   -0.7375    0.5208    0.0000 N   0  0  0  0  0  0  0  0  0  0  0  0
  2  1  1  1
  3  1  1  0
  4  3  2  0
  5  7  2  0
  6  2  1  0
  7  1  1  0
  8  2  1  0
  9  8  1  0
 10  6  1  0
 11  4  1  0
 12  3  1  0
 13 16  1  0
 14 18  1  0
  9 15  1  1
 16 12  2  0
 17 14  2  0
 18 20  1  0
  6 19  1  6
 20 26  1  0
 21 11  1  0
 10 22  1  6
 23 14  1  0
 18 24  1  6
 25 15  1  0
 26 25  1  0
 25 27  1  6
  4  5  1  0
  9 10  1  0
 11 13  2  0
M  END
> <chembl_id>
CHEMBL1214186

> <chembl_pref_name>
SINEFUNGIN

$$$$

     RDKit          2D

 33 35  0  0  0  0  0  0  0  0999 V2000
   10.9148   -5.8017    0.0000 N   0  0  0  0  0  0  0  0  0  0  0  0
   11.6343   -6.2083    0.0000 O   0  0  0  0  0  0  0  0  0  0  0  0
   10.9054   -4.9753    0.0000 O   0  0  0  0  0  0  0  0  0  0  0  0
    8.7736   -6.2208    0.0000 C   0  0  0  0  0  0  0  0  0  0  0  0
    8.7724   -7.0482    0.0000 C   0  0  0  0  0  0  0  0  0  0  0  0
    9.4872   -7.4610    0.0000 C   0  0  0  0  0  0  0  0  0  0  0  0
   10.2037   -7.0477    0.0000 C   0  0  0  0  0  0  0  0  0  0  0  0
   10.2008   -6.2172    0.0000 C   0  0  0  0  0  0  0  0  0  0  0  0
    9.4854   -5.8080    0.0000 C   0  0  0  0  0  0  0  0  0  0  0  0
    9.4870   -8.2860    0.0000 C   0  0  0  0  0  0  0  0  0  0  0  0
    8.7727   -8.6956    0.0000 C   0  0  0  0  0  0  0  0  0  0  0  0
    8.7722   -9.5198    0.0000 C   0  0  0  0  0  0  0  0  0  0  0  0
    9.4871   -9.9333    0.0000 N   0  0  0  0  0  0  0  0  0  0  0  0
   10.2040   -9.5165    0.0000 C   0  0  0  0  0  0  0  0  0  0  0  0
   10.2010   -8.6937    0.0000 C   0  0  0  0  0  0  0  0  0  0  0  0
    8.0574   -9.9318    0.0000 C   0  0  0  0  0  0  0  0  0  0  0  0
   10.9198   -9.9267    0.0000 C   0  0  0  0  0  0  0  0  0  0  0  0
   10.9138   -8.2781    0.0000 C   0  0  0  0  0  0  0  0  0  0  0  0
   11.6300   -8.6876    0.0000 O   0  0  0  0  0  0  0  0  0  0  0  0
   10.9103   -7.4532    0.0000 O   0  0  0  0  0  0  0  0  0  0  0  0
    8.0590   -8.2817    0.0000 C   0  0  0  0  0  0  0  0  0  0  0  0
    8.0605   -7.4567    0.0000 O   0  0  0  0  0  0  0  0  0  0  0  0
    7.3438   -8.6929    0.0000 O   0  0  0  0  0  0  0  0  0  0  0  0
    6.6301   -8.2791    0.0000 C   0  0  0  0  0  0  0  0  0  0  0  0
   12.3427   -8.2721    0.0000 C   0  0  0  0  0  0  0  0  0  0  0  0
   13.0589   -8.6816    0.0000 C   0  0  0  0  0  0  0  0  0  0  0  0
   13.7716   -8.2661    0.0000 C   0  0  0  0  0  0  0  0  0  0  0  0
   14.4878   -8.6755    0.0000 C   0  0  0  0  0  0  0  0  0  0  0  0
   14.4882   -9.5011    0.0000 C   0  0  0  0  0  0  0  0  0  0  0  0
   15.2036   -9.9105    0.0000 C   0  0  0  0  0  0  0  0  0  0  0  0
   15.9173   -9.4949    0.0000 C   0  0  0  0  0  0  0  0  0  0  0  0
   15.9111   -8.6657    0.0000 C   0  0  0  0  0  0  0  0  0  0  0  0
   15.1952   -8.2600    0.0000 C   0  0  0  0  0  0  0  0  0  0  0  0
  8  9  2  0
 14 17  1  0
  9  4  1  0
 15 18  1  0
  1  3  2  0
 18 19  1  0
  6 10  1  0
 18 20  2  0
  5  6  1  0
 11 21  1  0
 10 11  1  0
 21 22  2  0
 21 23  1  0
 11 12  2  0
 23 24  1  0
  8  1  1  0
  6  7  2  0
 19 25  1  0
 12 13  1  0
 25 26  1  0
  1  2  1  0
 26 27  2  0
 13 14  1  0
 27 28  1  0
  7  8  1  0
 28 29  2  0
 14 15  2  0
 29 30  1  0
 15 10  1  0
 30 31  2  0
  4  5  2  0
 31 32  1  0
 12 16  1  0
 32 33  2  0
 33 28  1  0
M  CHG  2   1   1   2  -1
M  END
> <chembl_id>
CHEMBL1096842

> <chembl_pref_name>
PRANIDIPINE

$$$$

     RDKit          2D

 23 26  0  0  0  0  0  0  0  0999 V2000
    0.5000   -1.6000    0.0000 C   0  0  0  0  0  0  0  0  0  0  0  0
   -0.2083   -0.6542    0.0000 C   0  0  0  0  0  0  0  0  0  0  0  0
   -0.8250   -3.2667    0.0000 S   0  0  0  0  0  0  0  0  0  0  0  0
    0.2292   -2.7667    0.0000 C   0  0  0  0  0  0  0  0  0  0  0  0
    0.3125    0.3833    0.0000 N   0  0  0  0  0  0  0  0  0  0  0  0
   -1.3958   -0.6542    0.0000 C   0  0  0  0  0  0  0  0  0  0  0  0
   -1.8750   -2.7417    0.0000 C   0  0  0  0  0  0  0  0  0  0  0  0
   -2.1333   -1.5875    0.0000 C   0  0  0  0  0  0  0  0  0  0  0  0
    1.3542    2.5333    0.0000 N   0  0  0  0  0  0  0  0  0  0  0  0
    1.6667   -1.2667    0.0000 C   0  0  0  0  0  0  0  0  0  0  0  0
   -0.3458    1.3500    0.0000 C   0  0  0  0  0  0  0  0  0  0  0  0
    1.4917    0.4833    0.0000 C   0  0  0  0  0  0  0  0  0  0  0  0
    1.1167   -3.5875    0.0000 C   0  0  0  0  0  0  0  0  0  0  0  0
    0.1792    2.4375    0.0000 C   0  0  0  0  0  0  0  0  0  0  0  0
    2.0167    1.5500    0.0000 C   0  0  0  0  0  0  0  0  0  0  0  0
    2.5375   -2.1000    0.0000 C   0  0  0  0  0  0  0  0  0  0  0  0
    2.2792   -3.2250    0.0000 C   0  0  0  0  0  0  0  0  0  0  0  0
    3.6792   -1.8000    0.0000 Cl  0  0  0  0  0  0  0  0  0  0  0  0
    1.8667    3.5958    0.0000 C   0  0  0  0  0  0  0  0  0  0  0  0
   -2.7750   -3.5375    0.0000 C   0  0  0  0  0  0  0  0  0  0  0  0
   -3.2833   -1.2125    0.0000 C   0  0  0  0  0  0  0  0  0  0  0  0
   -4.1708   -2.0292    0.0000 C   0  0  0  0  0  0  0  0  0  0  0  0
   -3.9208   -3.1542    0.0000 C   0  0  0  0  0  0  0  0  0  0  0  0
  2  1  1  0
  3  4  1  0
  4  1  2  0
  5  2  1  0
  6  2  1  0
  7  3  1  0
  8  6  1  0
  9 15  1  0
 10  1  1  0
 11  5  1  0
 12  5  1  0
 13  4  1  0
 14 11  1  0
 15 12  1  0
 16 10  2  0
 17 16  1  0
 18 16  1  0
 19  9  1  0
 20  7  1  0
 21  8  1  0
 22 21  2  0
 23 20  2  0
 13 17  2  0
  8  7  2  0
 14  9  1  0
 22 23  1  0
M  END
> <chembl_id>
CHEMBL64249

> <chembl_pref_name>
CLOROTEPINE

$$$$

     RDKit          2D

 25 26  0  0  0  0  0  0  0  0999 V2000
   -2.7290    0.2289    0.0000 C   0  0  0  0  0  0  0  0  0  0  0  0
   -3.5528    0.2720    0.0000 C   0  0  0  0  0  0  0  0  0  0  0  0
   -4.0022   -0.4199    0.0000 C   0  0  0  0  0  0  0  0  0  0  0  0
   -3.6276   -1.1550    0.0000 C   0  0  0  0  0  0  0  0  0  0  0  0
   -2.8038   -1.1981    0.0000 C   0  0  0  0  0  0  0  0  0  0  0  0
   -2.3544   -0.5062    0.0000 C   0  0  0  0  0  0  0  0  0  0  0  0
   -2.1456    0.8122    0.0000 N   0  0  0  0  0  0  0  0  0  0  0  0
   -1.4105    0.4377    0.0000 C   0  0  0  0  0  0  0  0  0  0  0  0
   -1.5396   -0.3771    0.0000 C   0  0  0  0  0  0  0  0  0  0  0  0
   -0.9562   -0.9604    0.0000 C   0  0  0  0  0  0  0  0  0  0  0  0
   -0.3729   -0.3771    0.0000 C   0  0  0  0  0  0  0  0  0  0  0  0
    1.0073   -0.7469    0.0000 C   0  0  0  0  0  0  0  0  0  0  0  0
    0.2105   -0.9604    0.0000 N   0  0  0  0  0  0  0  0  0  0  0  0
   -2.4292   -1.9332    0.0000 O   0  0  0  0  0  0  0  0  0  0  0  0
   -1.5396   -1.5438    0.0000 H   0  0  0  0  0  0  0  0  0  0  0  0
   -0.3729   -1.5438    0.0000 H   0  0  0  0  0  0  0  0  0  0  0  0
   -0.9563    0.2063    0.0000 H   0  0  0  0  0  0  0  0  0  0  0  0
    0.2105    0.2063    0.0000 H   0  0  0  0  0  0  0  0  0  0  0  0
   -0.0030   -1.7573    0.0000 C   0  0  0  0  0  0  0  0  0  0  0  0
    1.2209   -1.5438    0.0000 H   0  0  0  0  0  0  0  0  0  0  0  0
    1.8042   -0.5333    0.0000 H   0  0  0  0  0  0  0  0  0  0  0  0
    0.7938    0.0500    0.0000 H   0  0  0  0  0  0  0  0  0  0  0  0
   -0.7999   -1.9709    0.0000 H   0  0  0  0  0  0  0  0  0  0  0  0
    0.5804   -2.3407    0.0000 H   0  0  0  0  0  0  0  0  0  0  0  0
   -0.2165   -2.5542    0.0000 H   0  0  0  0  0  0  0  0  0  0  0  0
  1  2  1  0
  2  3  2  0
  3  4  1  0
  4  5  2  0
  5  6  1  0
  1  6  2  0
  7  8  1  0
  8  9  2  0
  1  7  1  0
  6  9  1  0
 10 11  1  0
  9 10  1  0
 12 13  1  0
 11 13  1  0
  5 14  1  0
 10 15  1  0
 10 16  1  0
 11 17  1  0
 11 18  1  0
 13 19  1  0
 12 20  1  0
 12 21  1  0
 12 22  1  0
 19 23  1  0
 19 24  1  0
 19 25  1  0
M  ISO  8  15   2  16   2  17   2  18   2  20   2  21   2  22   2  23   2
M  ISO  2  24   2  25   2
M  END
> <chembl_id>
CHEMBL4877198

> <chembl_pref_name>
DEUPSILOCIN

$$$$

     RDKit          2D

 20 22  0  0  0  0  0  0  0  0999 V2000
    0.6667    1.8958    0.0000 N   0  0  0  0  0  0  0  0  0  0  0  0
   -0.7583    1.8958    0.0000 C   0  0  0  0  0  0  0  0  0  0  0  0
    1.5792    0.7875    0.0000 C   0  0  0  0  0  0  0  0  0  0  0  0
    1.2875   -0.6000    0.0000 C   0  0  0  0  0  0  0  0  0  0  0  0
   -1.6208    0.7750    0.0000 C   0  0  0  0  0  0  0  0  0  0  0  0
    0.0167   -1.2375    0.0000 C   0  0  0  0  0  0  0  0  0  0  0  0
   -1.2750   -0.6167    0.0000 C   0  0  0  0  0  0  0  0  0  0  0  0
   -1.4083    3.1583    0.0000 O   0  0  0  0  0  0  0  0  0  0  0  0
    1.2667    3.1583    0.0000 C   0  0  0  0  0  0  0  0  0  0  0  0
    0.0542   -2.6625    0.0000 O   0  0  0  0  0  0  0  0  0  0  0  0
    2.3917   -1.5542    0.0000 C   0  0  0  0  0  0  0  0  0  0  0  0
    2.9750    1.2458    0.0000 C   0  0  0  0  0  0  0  0  0  0  0  0
   -3.0083    1.1625    0.0000 C   0  0  0  0  0  0  0  0  0  0  0  0
   -2.3333   -1.6417    0.0000 C   0  0  0  0  0  0  0  0  0  0  0  0
   -1.1458   -3.3792    0.0000 C   0  0  0  0  0  0  0  0  0  0  0  0
    3.7542   -1.1042    0.0000 C   0  0  0  0  0  0  0  0  0  0  0  0
   -4.0500    0.1708    0.0000 C   0  0  0  0  0  0  0  0  0  0  0  0
   -3.7083   -1.2167    0.0000 C   0  0  0  0  0  0  0  0  0  0  0  0
    4.0417    0.2833    0.0000 C   0  0  0  0  0  0  0  0  0  0  0  0
   -2.4083   -2.7292    0.0000 C   0  0  0  0  0  0  0  0  0  0  0  0
  2  1  1  0
  3  1  1  0
  4  3  2  0
  5  2  1  0
  6  4  1  0
  7  5  2  0
  8  2  2  0
  9  1  1  0
 10  6  1  0
 11  4  1  0
 12  3  1  0
 13  5  1  0
 14  7  1  0
 15 10  1  0
 16 19  1  0
 17 13  2  0
 18 17  1  0
 19 12  2  0
 20 15  1  0
  6  7  1  0
 11 16  2  0
 14 18  2  0
M  END
> <chembl_id>
CHEMBL2106559

> <chembl_pref_name>
ETAZEPINE

$$$$

     RDKit          2D

 28 32  0  0  0  0  0  0  0  0999 V2000
   -0.3505   -0.0264    0.0000 C   0  0  0  0  0  0  0  0  0  0  0  0
   -1.1534    0.5415    0.0000 C   0  0  0  0  0  0  0  0  0  0  0  0
   -0.3085   -1.0588    0.0000 C   0  0  0  0  0  0  0  0  0  0  0  0
   -2.0808   -1.5730    0.0000 O   0  0  0  0  0  0  0  0  0  0  0  0
   -1.1059   -1.7543    0.0000 C   0  0  0  0  0  0  0  0  0  0  0  0
   -2.1897    0.2866    0.0000 C   0  0  0  0  0  0  0  0  0  0  0  0
   -2.5753   -0.6923    0.0000 C   0  0  0  0  0  0  0  0  0  0  0  0
    2.8375   -3.3375    0.0000 N   0  0  0  0  0  0  0  0  0  0  0  0
    0.6276    0.2261    0.0000 C   0  0  0  0  0  0  0  0  0  0  0  0
   -1.2408    1.5637    0.0000 C   0  0  0  0  0  0  0  0  0  0  0  0
    0.5990    2.0556    0.0000 N   0  0  0  0  0  0  0  0  0  0  0  0
    1.7917   -2.8667    0.0000 C   0  0  0  0  0  0  0  0  0  0  0  0
    0.6811   -1.3981    0.0000 C   0  0  0  0  0  0  0  0  0  0  0  0
   -0.8684   -2.7747    0.0000 C   0  0  0  0  0  0  0  0  0  0  0  0
   -0.4434    2.2592    0.0000 C   0  0  0  0  0  0  0  0  0  0  0  0
    1.0353    1.1726    0.0000 C   0  0  0  0  0  0  0  0  0  0  0  0
    0.8742   -2.4536    0.0000 C   0  0  0  0  0  0  0  0  0  0  0  0
    1.2311    2.9195    0.0000 C   0  0  0  0  0  0  0  0  0  0  0  0
    0.1125   -3.1059    0.0000 C   0  0  0  0  0  0  0  0  0  0  0  0
   -2.8239    1.1157    0.0000 C   0  0  0  0  0  0  0  0  0  0  0  0
   -3.6255   -0.8101    0.0000 C   0  0  0  0  0  0  0  0  0  0  0  0
    2.2215    2.8680    0.0000 C   0  0  0  0  0  0  0  0  0  0  0  0
    2.9280    3.6473    0.0000 C   0  0  0  0  0  0  0  0  0  0  0  0
    2.7697    2.0021    0.0000 C   0  0  0  0  0  0  0  0  0  0  0  0
   -3.8685    0.9607    0.0000 C   0  0  0  0  0  0  0  0  0  0  0  0
   -4.2424    0.0030    0.0000 C   0  0  0  0  0  0  0  0  0  0  0  0
    3.8693    3.2645    0.0000 C   0  0  0  0  0  0  0  0  0  0  0  0
    3.7626    2.1968    0.0000 C   0  0  0  0  0  0  0  0  0  0  0  0
  2  1  2  0
  3  1  1  0
  4  5  1  0
  5  3  2  0
  6  2  1  0
  7  6  2  0
  8 12  3  0
  9  1  1  0
 10  2  1  0
 11 16  1  0
 12 17  1  0
 13  3  1  0
 14  5  1  0
 15 10  1  0
 16  9  1  0
 17 13  2  0
 18 11  1  0
 19 17  1  0
 20  6  1  0
 21  7  1  0
 22 18  1  0
 23 22  1  0
 24 22  1  0
 25 20  2  0
 26 25  1  0
 27 23  1  0
 28 24  1  0
 15 11  1  0
  7  4  1  0
 14 19  2  0
 21 26  2  0
 27 28  1  0
M  END
> <chembl_id>
CHEMBL2105557

> <chembl_pref_name>
SAVOXEPIN

$$$$

     RDKit          2D

 35 38  0  0  1  0  0  0  0  0999 V2000
    5.0750  -13.0792    0.0000 C   0  0  0  0  0  0  0  0  0  0  0  0
    5.8542  -13.0375    0.0000 C   0  0  0  0  0  0  0  0  0  0  0  0
    6.9917  -11.4792    0.0000 N   0  0  0  0  0  0  0  0  0  0  0  0
    6.9917  -10.1125    0.0000 C   0  0  0  0  0  0  0  0  0  0  0  0
    6.1167  -12.2417    0.0000 C   0  0  0  0  0  0  0  0  0  0  0  0
    4.6792  -12.3000    0.0000 N   0  0  0  0  0  0  0  0  0  0  0  0
    7.5875  -10.4542    0.0000 C   0  0  0  0  0  0  0  0  0  0  0  0
    6.4042  -10.4542    0.0000 C   0  0  0  0  0  0  0  0  0  0  0  0
    7.4792  -12.2042    0.0000 O   0  0  0  0  0  0  0  0  0  0  0  0
    7.3750   -9.5417    0.0000 C   0  0  0  0  0  0  0  0  0  0  0  0
    4.5542  -13.7042    0.0000 O   0  0  0  0  0  0  0  0  0  0  0  0
    5.8625  -13.6667    0.0000 C   0  0  0  0  0  0  0  0  0  0  0  0
    6.9667  -13.2500    0.0000 C   0  0  0  0  0  0  0  0  0  0  0  0
    6.7917  -12.1292    0.0000 C   0  0  0  0  0  0  0  0  0  0  0  0
    7.5875  -11.1417    0.0000 C   0  0  0  0  0  0  0  0  0  0  0  0
    6.4042  -11.1417    0.0000 C   0  0  0  0  0  0  0  0  0  0  0  0
    8.0542   -9.5792    0.0000 C   0  0  0  0  0  0  0  0  0  0  0  0
    7.0667   -8.9292    0.0000 C   0  0  0  0  0  0  0  0  0  0  0  0
    6.4625   -9.4917    0.0000 O   0  0  0  0  0  0  0  0  0  0  0  0
    8.1250   -8.4000    0.0000 C   0  0  0  0  0  0  0  0  0  0  0  0
    7.4417   -8.3542    0.0000 C   0  0  0  0  0  0  0  0  0  0  0  0
    8.4292   -9.0042    0.0000 C   0  0  0  0  0  0  0  0  0  0  0  0
    8.5042   -7.8292    0.0000 Cl  0  0  0  0  0  0  0  0  0  0  0  0
    4.7167  -11.2667    0.0000 C   0  0  0  0  0  0  0  0  0  0  0  0
    3.6542  -12.3625    0.0000 C   0  0  0  0  0  0  0  0  0  0  0  0
    6.4042  -13.9792    0.0000 C   0  0  0  0  0  0  0  0  0  0  0  0
    5.3042  -13.9792    0.0000 C   0  0  0  0  0  0  0  0  0  0  0  0
    7.4917  -12.9042    0.0000 C   0  0  0  0  0  0  0  0  0  0  0  0
    7.0000  -13.8750    0.0000 C   0  0  0  0  0  0  0  0  0  0  0  0
    5.3042  -14.6167    0.0000 C   0  0  0  0  0  0  0  0  0  0  0  0
    8.0500  -13.1917    0.0000 C   0  0  0  0  0  0  0  0  0  0  0  0
    7.5542  -14.1542    0.0000 C   0  0  0  0  0  0  0  0  0  0  0  0
    6.4042  -14.6167    0.0000 C   0  0  0  0  0  0  0  0  0  0  0  0
    5.8625  -14.9292    0.0000 C   0  0  0  0  0  0  0  0  0  0  0  0
    8.0792  -13.8167    0.0000 C   0  0  0  0  0  0  0  0  0  0  0  0
  2  1  1  0
  3 14  1  1
  4  8  1  0
  5  2  1  0
  6  1  1  0
  7 15  1  0
  8 16  1  0
  9  3  1  0
 10  4  1  0
 11  1  2  0
 12  2  1  0
 13  2  1  0
 14  5  1  0
 15  3  1  0
 16  3  1  0
 17 10  1  0
 18 10  2  0
  4 19  1  1
 20 21  2  0
 21 18  1  0
 22 17  2  0
 23 20  1  0
 24  6  1  0
 25  6  1  0
 26 12  1  0
 27 12  2  0
 28 13  1  0
 29 13  2  0
 30 27  1  0
 31 28  2  0
 32 29  1  0
 33 26  2  0
 34 30  2  0
 35 32  2  0
 31 35  1  0
 33 34  1  0
  7  4  1  0
 22 20  1  0
M  CHG  2   3   1   9  -1
M  END
> <chembl_id>
CHEMBL2105114

> <chembl_pref_name>
LOPERAMIDE OXIDE

$$$$

     RDKit          2D

 73 80  0  0  1  0  0  0  0  0999 V2000
    6.3542   -2.9667    0.0000 C   0  0  0  0  0  0  0  0  0  0  0  0
    7.0292   -2.5750    0.0000 C   0  0  0  0  0  0  0  0  0  0  0  0
    6.3417   -3.7542    0.0000 C   0  0  0  0  0  0  0  0  0  0  0  0
    7.7042   -2.9625    0.0000 C   0  0  0  0  0  0  0  0  0  0  0  0
    4.9792   -3.7417    0.0000 C   0  0  0  0  0  0  0  0  0  0  0  0
    5.6667   -4.1417    0.0000 C   0  0  0  0  0  0  0  0  0  0  0  0
    5.6667   -2.5667    0.0000 C   0  0  0  0  0  0  0  0  0  0  0  0
    7.7125   -3.7542    0.0000 C   0  0  0  0  0  0  0  0  0  0  0  0
    4.9792   -2.9625    0.0000 C   0  0  0  0  0  0  0  0  0  0  0  0
    7.0292   -4.1417    0.0000 C   0  0  0  0  0  0  0  0  0  0  0  0
    4.3042   -4.1292    0.0000 C   0  0  0  0  0  0  0  0  0  0  0  0
    7.0167   -1.7917    0.0000 C   0  0  0  0  0  0  0  0  0  0  0  0
    3.6292   -3.7417    0.0000 C   0  0  0  0  0  0  0  0  0  0  0  0
    2.9625   -4.1292    0.0000 C   0  0  0  0  0  0  0  0  0  0  0  0
    0.3667   -7.4042    0.0000 C   0  0  0  0  0  0  0  0  0  0  0  0
   -0.2958   -7.0167    0.0000 C   0  0  0  0  0  0  0  0  0  0  0  0
    2.2875   -3.7417    0.0000 O   0  0  0  0  0  0  0  0  0  0  0  0
    2.2875   -5.3000    0.0000 C   0  0  0  0  0  0  0  0  0  0  0  0
    1.0417   -6.2375    0.0000 C   0  0  0  0  0  0  0  0  0  0  0  0
    5.9167   -0.6875    0.0000 C   0  0  0  0  0  0  0  0  0  0  0  0
    1.0417   -7.0167    0.0000 C   0  0  0  0  0  0  0  0  0  0  0  0
    0.3667   -5.8500    0.0000 O   0  0  0  0  0  0  0  0  0  0  0  0
    5.2417   -1.0667    0.0000 O   0  0  0  0  0  0  0  0  0  0  0  0
    2.9625   -4.9167    0.0000 C   0  0  0  0  0  0  0  0  0  0  0  0
    5.9167    0.0958    0.0000 C   0  0  0  0  0  0  0  0  0  0  0  0
    1.6125   -4.9167    0.0000 C   0  0  0  0  0  0  0  0  0  0  0  0
    7.7042   -1.4000    0.0000 C   0  0  0  0  0  0  0  0  0  0  0  0
   -2.3333   -7.4042    0.0000 O   0  0  0  0  0  0  0  0  0  0  0  0
    4.5667    0.0958    0.0000 C   0  0  0  0  0  0  0  0  0  0  0  0
   -3.6833   -9.7417    0.0000 C   0  0  0  0  0  0  0  0  0  0  0  0
   -0.2958   -6.2375    0.0000 C   0  0  0  0  0  0  0  0  0  0  0  0
    1.6125   -4.1292    0.0000 C   0  0  0  0  0  0  0  0  0  0  0  0
    5.2417    0.4958    0.0000 C   0  0  0  0  0  0  0  0  0  0  0  0
    4.5667   -0.6875    0.0000 C   0  0  0  0  0  0  0  0  0  0  0  0
    8.3792   -2.5750    0.0000 C   0  0  0  0  0  0  0  0  0  0  0  0
    8.3792   -4.1292    0.0000 O   0  0  0  0  0  0  0  0  0  0  0  0
    4.3042   -2.5792    0.0000 C   0  0  0  0  0  0  0  0  0  0  0  0
   -3.6833   -8.9667    0.0000 N   0  0  0  0  0  0  0  0  0  0  0  0
    6.4625   -1.2292    0.0000 O   0  0  0  0  0  0  0  0  0  0  0  0
    1.7250   -5.8500    0.0000 O   0  0  0  0  0  0  0  0  0  0  0  0
    8.3792   -1.7875    0.0000 C   0  0  0  0  0  0  0  0  0  0  0  0
    3.6292   -2.9667    0.0000 C   0  0  0  0  0  0  0  0  0  0  0  0
   -1.6583   -7.7917    0.0000 C   0  0  0  0  0  0  0  0  0  0  0  0
   -0.9833   -7.4042    0.0000 O   0  0  0  0  0  0  0  0  0  0  0  0
   -2.9958   -8.5750    0.0000 C   0  0  0  0  0  0  0  0  0  0  0  0
   -2.9958   -7.7917    0.0000 C   0  0  0  0  0  0  0  0  0  0  0  0
    8.3792   -4.9167    0.0000 C   0  0  0  0  0  0  0  0  0  0  0  0
    5.6542   -4.9250    0.0000 O   0  0  0  0  0  0  0  0  0  0  0  0
    5.6667   -1.7875    0.0000 O   0  0  0  0  0  0  0  0  0  0  0  0
    6.4667   -2.0167    0.0000 O   0  0  0  0  0  0  0  0  0  0  0  0
    8.4625   -3.1667    0.0000 O   0  0  0  0  0  0  0  0  0  0  0  0
   -4.3625  -10.1292    0.0000 O   0  0  0  0  0  0  0  0  0  0  0  0
    7.7042   -5.3125    0.0000 O   0  0  0  0  0  0  0  0  0  0  0  0
   -2.3333   -8.9667    0.0000 C   0  0  0  0  0  0  0  0  0  0  0  0
    4.3042   -4.9167    0.0000 O   0  0  0  0  0  0  0  0  0  0  0  0
    7.0167   -4.9250    0.0000 O   0  0  0  0  0  0  0  0  0  0  0  0
   -2.9250   -9.9417    0.0000 N   0  0  0  0  0  0  0  0  0  0  0  0
    0.9250   -7.9542    0.0000 O   0  0  0  0  0  0  0  0  0  0  0  0
   -1.6583   -8.5750    0.0000 C   0  0  0  0  0  0  0  0  0  0  0  0
    0.8292   -4.9125    0.0000 O   0  0  0  0  0  0  0  0  0  0  0  0
    3.8792    0.4833    0.0000 O   0  0  0  0  0  0  0  0  0  0  0  0
    5.2417    1.2708    0.0000 O   0  0  0  0  0  0  0  0  0  0  0  0
   -0.1875   -7.9542    0.0000 C   0  0  0  0  0  0  0  0  0  0  0  0
   -0.9833   -5.8500    0.0000 C   0  0  0  0  0  0  0  0  0  0  0  0
    0.9292   -3.7417    0.0000 C   0  0  0  0  0  0  0  0  0  0  0  0
    9.0625   -1.4000    0.0000 C   0  0  0  0  0  0  0  0  0  0  0  0
    3.8917   -1.0750    0.0000 C   0  0  0  0  0  0  0  0  0  0  0  0
    9.0625   -5.3125    0.0000 C   0  0  0  0  0  0  0  0  0  0  0  0
   -3.6833   -7.4042    0.0000 C   0  0  0  0  0  0  0  0  0  0  0  0
    5.9167    1.6583    0.0000 C   0  0  0  0  0  0  0  0  0  0  0  0
    7.7042   -4.5250    0.0000 H   0  0  0  0  0  0  0  0  0  0  0  0
    2.8375   -5.8500    0.0000 H   0  0  0  0  0  0  0  0  0  0  0  0
    7.0167   -1.0042    0.0000 H   0  0  0  0  0  0  0  0  0  0  0  0
  2  1  1  0
  3  1  2  0
  4  2  1  0
  5  9  2  0
  6  3  1  0
  7  1  1  0
  8 10  1  0
  9  7  1  0
 10  3  1  0
 11  5  1  0
 12  2  1  0
 13 42  1  0
 14 13  1  1
 15 21  1  0
 16 31  1  0
 17 14  1  0
 18 24  1  0
 19 40  1  1
 20 39  1  6
 21 19  1  0
 22 19  1  0
 23 20  1  0
 24 14  1  0
 25 20  1  0
 26 18  1  0
 27 12  1  0
 28 43  1  0
 29 33  1  0
 30 38  1  0
 31 22  1  0
 32 17  1  0
 33 25  1  0
 34 23  1  0
 35  4  1  0
  8 36  1  6
 37  9  1  0
 45 38  1  6
 12 39  1  6
 18 40  1  1
 41 27  2  0
 42 37  2  0
 43 44  1  1
 16 44  1  6
 45 54  1  0
 46 28  1  0
 47 36  1  0
 48  6  2  0
 49  7  2  0
  2 50  1  6
  4 51  1  6
 52 30  2  0
 53 47  2  0
 54 59  1  0
 55 11  1  0
 10 56  1  6
 57 30  1  0
 15 58  1  6
 59 43  1  0
 26 60  1  6
 29 61  1  1
 33 62  1  6
 15 63  1  1
 31 64  1  1
 32 65  1  1
 66 41  1  0
 34 67  1  1
 68 47  1  0
 46 69  1  1
 70 62  1  0
  8 71  1  1
 18 72  1  6
 12 73  1  1
  6  5  1  0
  8  4  1  0
 41 35  1  0
 13 11  2  0
 34 29  1  0
 26 32  1  0
 15 16  1  0
 45 46  1  0
M  END
> <chembl_id>
CHEMBL409302

> <chembl_pref_name>
COMPOUND P371 A

$$$$

     RDKit          2D

 17 16  0  0  0  0  0  0  0  0999 V2000
   -0.2250    0.6958    0.0000 C   0  0  0  0  0  0  0  0  0  0  0  0
   -0.2208    1.4083    0.0000 O   0  0  0  0  0  0  0  0  0  0  0  0
   -0.8375    0.3458    0.0000 O   0  0  0  0  0  0  0  0  0  0  0  0
   -2.0708    0.3458    0.0000 C   0  0  0  0  0  0  0  0  0  0  0  0
   -1.4500    0.6958    0.0000 C   0  0  0  0  0  0  0  0  0  0  0  0
   -2.0708   -0.3667    0.0000 O   0  0  0  0  0  0  0  0  0  0  0  0
   -3.3083    0.3375    0.0000 O   0  0  0  0  0  0  0  0  0  0  0  0
    0.3875    0.3375    0.0000 C   0  0  0  0  0  0  0  0  0  0  0  0
   -2.6875    0.6958    0.0000 C   0  0  0  0  0  0  0  0  0  0  0  0
    1.0042    0.6958    0.0000 C   0  0  0  0  0  0  0  0  0  0  0  0
    4.6792    0.6833    0.0000 C   0  0  0  0  0  0  0  0  0  0  0  0
    4.0667    0.3333    0.0000 C   0  0  0  0  0  0  0  0  0  0  0  0
    2.8417    0.3333    0.0000 C   0  0  0  0  0  0  0  0  0  0  0  0
    3.4542    0.6833    0.0000 C   0  0  0  0  0  0  0  0  0  0  0  0
    1.6167    0.3333    0.0000 C   0  0  0  0  0  0  0  0  0  0  0  0
    2.2292    0.6875    0.0000 C   0  0  0  0  0  0  0  0  0  0  0  0
    5.2917    0.3250    0.0000 C   0  0  0  0  0  0  0  0  0  0  0  0
  2  1  2  0
  3  1  1  0
  4  5  1  0
  5  3  1  0
  6  4  1  0
  7  9  1  0
  8  1  1  0
  9  4  1  0
 10  8  1  0
 11 12  1  0
 12 14  1  0
 13 16  1  0
 14 13  1  0
 15 10  1  0
 16 15  1  0
 17 11  1  0
M  END
> <chembl_id>
CHEMBL1595008

> <chembl_pref_name>
MONOCTANOIN COMPONENT B

$$$$

     RDKit          2D

184193  0  0  0  0  0  0  0  0999 V2000
   -4.3902   12.6991    0.0000 C   0  0  0  0  0  0  0  0  0  0  0  0
   -5.1047   12.2866    0.0000 C   0  0  0  0  0  0  0  0  0  0  0  0
   -5.1047   11.4616    0.0000 C   0  0  0  0  0  0  0  0  0  0  0  0
   -4.3902   11.0491    0.0000 C   0  0  0  0  0  0  0  0  0  0  0  0
   -3.6757   11.4616    0.0000 C   0  0  0  0  0  0  0  0  0  0  0  0
   -3.6757   12.2866    0.0000 C   0  0  0  0  0  0  0  0  0  0  0  0
   -4.3902   13.5241    0.0000 O   0  0  0  0  0  0  0  0  0  0  0  0
   -4.3902   10.2241    0.0000 C   0  0  0  0  0  0  0  0  0  0  0  0
   -3.6757    9.8116    0.0000 C   0  0  0  0  0  0  0  0  0  0  0  0
   -5.1046    9.8116    0.0000 N   0  0  0  0  0  0  0  0  0  0  0  0
   -3.6757    8.9866    0.0000 O   0  0  0  0  0  0  0  0  0  0  0  0
   -2.9612   10.2241    0.0000 N   0  0  0  0  0  0  0  0  0  0  0  0
   -2.2468    9.8116    0.0000 C   0  0  0  0  0  0  0  0  0  0  0  0
   -1.5323   10.2241    0.0000 C   0  0  0  0  0  0  0  0  0  0  0  0
   -2.2468    8.9866    0.0000 C   0  0  0  0  0  0  0  0  0  0  0  0
   -1.5323    8.5741    0.0000 N   0  0  0  0  0  0  0  0  0  0  0  0
   -2.9612    8.5741    0.0000 O   0  0  0  0  0  0  0  0  0  0  0  0
   -1.5323   11.0491    0.0000 C   0  0  0  0  0  0  0  0  0  0  0  0
   -0.8178   11.4616    0.0000 C   0  0  0  0  0  0  0  0  0  0  0  0
   -0.8178   12.2866    0.0000 N   0  0  0  0  0  0  0  0  0  0  0  0
   -1.3188    7.7772    0.0000 C   0  0  0  0  0  0  0  0  0  0  0  0
   -0.4938    7.7772    0.0000 C   0  0  0  0  0  0  0  0  0  0  0  0
   -0.2802    8.5741    0.0000 N   0  0  0  0  0  0  0  0  0  0  0  0
    0.4342    8.9866    0.0000 C   0  0  0  0  0  0  0  0  0  0  0  0
    1.1487    8.5741    0.0000 C   0  0  0  0  0  0  0  0  0  0  0  0
    0.4342    9.8116    0.0000 C   0  0  0  0  0  0  0  0  0  0  0  0
    1.1487   10.2241    0.0000 C   0  0  0  0  0  0  0  0  0  0  0  0
    1.1487   11.0491    0.0000 C   0  0  0  0  0  0  0  0  0  0  0  0
    0.4342   11.4616    0.0000 C   0  0  0  0  0  0  0  0  0  0  0  0
   -0.2803   11.0491    0.0000 C   0  0  0  0  0  0  0  0  0  0  0  0
   -0.2803   10.2241    0.0000 C   0  0  0  0  0  0  0  0  0  0  0  0
    0.4342   12.2866    0.0000 O   0  0  0  0  0  0  0  0  0  0  0  0
    0.0085    7.1227    0.0000 O   0  0  0  0  0  0  0  0  0  0  0  0
    1.8632    8.9866    0.0000 N   0  0  0  0  0  0  0  0  0  0  0  0
    1.1487    7.7491    0.0000 O   0  0  0  0  0  0  0  0  0  0  0  0
    2.5776    8.5741    0.0000 C   0  0  0  0  0  0  0  0  0  0  0  0
    3.2921    8.9866    0.0000 C   0  0  0  0  0  0  0  0  0  0  0  0
    2.5776    7.7491    0.0000 C   0  0  0  0  0  0  0  0  0  0  0  0
    3.2921    7.3366    0.0000 O   0  0  0  0  0  0  0  0  0  0  0  0
    1.8632    7.3366    0.0000 N   0  0  0  0  0  0  0  0  0  0  0  0
    1.8632    6.5116    0.0000 C   0  0  0  0  0  0  0  0  0  0  0  0
    1.1487    6.0991    0.0000 C   0  0  0  0  0  0  0  0  0  0  0  0
    2.4465    5.9282    0.0000 C   0  0  0  0  0  0  0  0  0  0  0  0
    1.1487    5.2741    0.0000 N   0  0  0  0  0  0  0  0  0  0  0  0
    0.4342    6.5116    0.0000 O   0  0  0  0  0  0  0  0  0  0  0  0
    3.2715    5.9282    0.0000 C   0  0  0  0  0  0  0  0  0  0  0  0
    2.1308    5.1660    0.0000 O   0  0  0  0  0  0  0  0  0  0  0  0
    0.4342    4.8616    0.0000 C   0  0  0  0  0  0  0  0  0  0  0  0
    0.4342    4.0366    0.0000 C   0  0  0  0  0  0  0  0  0  0  0  0
   -0.2802    5.2741    0.0000 C   0  0  0  0  0  0  0  0  0  0  0  0
   -0.2802    3.6241    0.0000 N   0  0  0  0  0  0  0  0  0  0  0  0
    1.1487    3.6241    0.0000 O   0  0  0  0  0  0  0  0  0  0  0  0
   -0.9947    4.8616    0.0000 C   0  0  0  0  0  0  0  0  0  0  0  0
   -1.7092    5.2741    0.0000 C   0  0  0  0  0  0  0  0  0  0  0  0
   -2.4237    4.8616    0.0000 C   0  0  0  0  0  0  0  0  0  0  0  0
   -2.4237    4.0366    0.0000 C   0  0  0  0  0  0  0  0  0  0  0  0
   -1.7092    3.6241    0.0000 C   0  0  0  0  0  0  0  0  0  0  0  0
   -0.9947    4.0366    0.0000 C   0  0  0  0  0  0  0  0  0  0  0  0
   -0.2802    2.7991    0.0000 C   0  0  0  0  0  0  0  0  0  0  0  0
   -0.9947    2.3866    0.0000 C   0  0  0  0  0  0  0  0  0  0  0  0
    0.4342    2.3866    0.0000 C   0  0  0  0  0  0  0  0  0  0  0  0
    1.1487    2.7991    0.0000 C   0  0  0  0  0  0  0  0  0  0  0  0
    1.8632    2.3866    0.0000 C   0  0  0  0  0  0  0  0  0  0  0  0
    2.5776    2.7991    0.0000 N   0  0  0  0  0  0  0  0  0  0  0  0
   -0.9947    1.5616    0.0000 N   0  0  0  0  0  0  0  0  0  0  0  0
   -1.7092    2.7991    0.0000 O   0  0  0  0  0  0  0  0  0  0  0  0
   -1.7092    1.1491    0.0000 C   0  0  0  0  0  0  0  0  0  0  0  0
   -1.7092    0.3241    0.0000 C   0  0  0  0  0  0  0  0  0  0  0  0
   -2.4237    1.5616    0.0000 C   0  0  0  0  0  0  0  0  0  0  0  0
   -3.1381    1.1491    0.0000 N   0  0  0  0  0  0  0  0  0  0  0  0
   -2.4237    2.3866    0.0000 O   0  0  0  0  0  0  0  0  0  0  0  0
   -2.4237   -0.0884    0.0000 C   0  0  0  0  0  0  0  0  0  0  0  0
   -2.4237   -0.9134    0.0000 C   0  0  0  0  0  0  0  0  0  0  0  0
   -1.7092   -1.3259    0.0000 C   0  0  0  0  0  0  0  0  0  0  0  0
   -0.9947   -0.9134    0.0000 C   0  0  0  0  0  0  0  0  0  0  0  0
   -0.9947   -0.0884    0.0000 C   0  0  0  0  0  0  0  0  0  0  0  0
   -3.8526    1.5616    0.0000 C   0  0  0  0  0  0  0  0  0  0  0  0
   -4.5671    1.1491    0.0000 C   0  0  0  0  0  0  0  0  0  0  0  0
   -5.2815    1.5616    0.0000 N   0  0  0  0  0  0  0  0  0  0  0  0
   -4.5671    0.3241    0.0000 O   0  0  0  0  0  0  0  0  0  0  0  0
   -5.9960    1.1491    0.0000 C   0  0  0  0  0  0  0  0  0  0  0  0
   -6.7105    1.5616    0.0000 C   0  0  0  0  0  0  0  0  0  0  0  0
   -5.9960    0.3241    0.0000 C   0  0  0  0  0  0  0  0  0  0  0  0
   -7.4250    1.1491    0.0000 N   0  0  0  0  0  0  0  0  0  0  0  0
   -6.7105    2.3866    0.0000 O   0  0  0  0  0  0  0  0  0  0  0  0
   -6.7105   -0.0884    0.0000 C   0  0  0  0  0  0  0  0  0  0  0  0
   -6.7105   -0.9134    0.0000 C   0  0  0  0  0  0  0  0  0  0  0  0
   -5.9960   -1.3259    0.0000 C   0  0  0  0  0  0  0  0  0  0  0  0
   -5.2815   -0.9134    0.0000 C   0  0  0  0  0  0  0  0  0  0  0  0
   -5.2815   -0.0884    0.0000 C   0  0  0  0  0  0  0  0  0  0  0  0
   -5.9960   -2.1509    0.0000 O   0  0  0  0  0  0  0  0  0  0  0  0
   -1.7092   -2.1509    0.0000 O   0  0  0  0  0  0  0  0  0  0  0  0
   -2.4237   -2.5634    0.0000 C   0  0  0  0  0  0  0  0  0  0  0  0
   -3.1381   -2.1509    0.0000 O   0  0  0  0  0  0  0  0  0  0  0  0
   -3.8526   -2.5634    0.0000 C   0  0  0  0  0  0  0  0  0  0  0  0
   -3.8526   -3.3884    0.0000 C   0  0  0  0  0  0  0  0  0  0  0  0
   -3.1382   -3.8009    0.0000 C   0  0  0  0  0  0  0  0  0  0  0  0
   -2.4237   -3.3884    0.0000 C   0  0  0  0  0  0  0  0  0  0  0  0
   -4.5671   -2.1509    0.0000 C   0  0  0  0  0  0  0  0  0  0  0  0
   -4.5671   -1.3259    0.0000 O   0  0  0  0  0  0  0  0  0  0  0  0
   -4.5671   -3.8009    0.0000 O   0  0  0  0  0  0  0  0  0  0  0  0
   -3.1381   -4.6259    0.0000 O   0  0  0  0  0  0  0  0  0  0  0  0
   -1.7092   -3.8009    0.0000 O   0  0  0  0  0  0  0  0  0  0  0  0
   -0.9947   -4.2134    0.0000 C   0  0  0  0  0  0  0  0  0  0  0  0
   -0.9947   -5.0384    0.0000 C   0  0  0  0  0  0  0  0  0  0  0  0
   -0.2802   -5.4509    0.0000 C   0  0  0  0  0  0  0  0  0  0  0  0
    0.4342   -5.0384    0.0000 C   0  0  0  0  0  0  0  0  0  0  0  0
    0.4342   -4.2134    0.0000 C   0  0  0  0  0  0  0  0  0  0  0  0
   -0.2803   -3.8009    0.0000 O   0  0  0  0  0  0  0  0  0  0  0  0
    1.1487   -3.8009    0.0000 C   0  0  0  0  0  0  0  0  0  0  0  0
    1.8632   -4.2134    0.0000 O   0  0  0  0  0  0  0  0  0  0  0  0
    1.1487   -5.4509    0.0000 O   0  0  0  0  0  0  0  0  0  0  0  0
   -0.2802   -6.2759    0.0000 O   0  0  0  0  0  0  0  0  0  0  0  0
   -1.7092   -5.4509    0.0000 O   0  0  0  0  0  0  0  0  0  0  0  0
   -8.1394    1.5616    0.0000 C   0  0  0  0  0  0  0  0  0  0  0  0
   -8.8539    1.1491    0.0000 C   0  0  0  0  0  0  0  0  0  0  0  0
   -9.5684    1.5616    0.0000 N   0  0  0  0  0  0  0  0  0  0  0  0
   -8.8539    0.3241    0.0000 O   0  0  0  0  0  0  0  0  0  0  0  0
   -9.5684    2.3866    0.0000 C   0  0  0  0  0  0  0  0  0  0  0  0
  -10.2828    2.7991    0.0000 C   0  0  0  0  0  0  0  0  0  0  0  0
   -8.8539    2.7991    0.0000 C   0  0  0  0  0  0  0  0  0  0  0  0
   -8.8539    3.6241    0.0000 N   0  0  0  0  0  0  0  0  0  0  0  0
   -8.1394    2.3866    0.0000 O   0  0  0  0  0  0  0  0  0  0  0  0
  -10.9973    2.3866    0.0000 C   0  0  0  0  0  0  0  0  0  0  0  0
  -11.7118    2.7991    0.0000 C   0  0  0  0  0  0  0  0  0  0  0  0
  -10.9973    1.5616    0.0000 C   0  0  0  0  0  0  0  0  0  0  0  0
   -8.1394    4.0366    0.0000 C   0  0  0  0  0  0  0  0  0  0  0  0
   -8.1394    4.8616    0.0000 C   0  0  0  0  0  0  0  0  0  0  0  0
   -7.4250    3.6241    0.0000 C   0  0  0  0  0  0  0  0  0  0  0  0
   -7.4250    5.2741    0.0000 N   0  0  0  0  0  0  0  0  0  0  0  0
   -8.8539    5.2741    0.0000 O   0  0  0  0  0  0  0  0  0  0  0  0
   -7.4250    6.0991    0.0000 C   0  0  0  0  0  0  0  0  0  0  0  0
   -6.7105    6.5116    0.0000 C   0  0  0  0  0  0  0  0  0  0  0  0
   -8.1394    6.5116    0.0000 C   0  0  0  0  0  0  0  0  0  0  0  0
   -8.1394    7.3366    0.0000 C   0  0  0  0  0  0  0  0  0  0  0  0
   -8.8539    7.7491    0.0000 C   0  0  0  0  0  0  0  0  0  0  0  0
   -9.5684    7.3366    0.0000 C   0  0  0  0  0  0  0  0  0  0  0  0
   -9.5684    6.5116    0.0000 C   0  0  0  0  0  0  0  0  0  0  0  0
   -8.8539    6.0991    0.0000 C   0  0  0  0  0  0  0  0  0  0  0  0
  -10.2829    6.0991    0.0000 Cl  0  0  0  0  0  0  0  0  0  0  0  0
  -10.2828    7.7491    0.0000 O   0  0  0  0  0  0  0  0  0  0  0  0
   -6.7105    7.3366    0.0000 O   0  0  0  0  0  0  0  0  0  0  0  0
   -5.9960    6.0991    0.0000 O   0  0  0  0  0  0  0  0  0  0  0  0
   -5.9960    7.7491    0.0000 C   0  0  0  0  0  0  0  0  0  0  0  0
   -5.9960    8.5741    0.0000 C   0  0  0  0  0  0  0  0  0  0  0  0
   -5.2815    7.3366    0.0000 C   0  0  0  0  0  0  0  0  0  0  0  0
   -4.5671    7.7491    0.0000 N   0  0  0  0  0  0  0  0  0  0  0  0
   -5.2815    6.5116    0.0000 O   0  0  0  0  0  0  0  0  0  0  0  0
   -5.1046    8.9866    0.0000 C   0  0  0  0  0  0  0  0  0  0  0  0
   -4.4095    8.5423    0.0000 O   0  0  0  0  0  0  0  0  0  0  0  0
   -6.6912    9.0184    0.0000 N   0  0  0  0  0  0  0  0  0  0  0  0
   -7.4056    8.6059    0.0000 C   0  0  0  0  0  0  0  0  0  0  0  0
   -8.1201    9.0184    0.0000 C   0  0  0  0  0  0  0  0  0  0  0  0
   -7.4056    7.7809    0.0000 O   0  0  0  0  0  0  0  0  0  0  0  0
   -8.8346    8.6059    0.0000 C   0  0  0  0  0  0  0  0  0  0  0  0
   -8.1201    9.8434    0.0000 N   0  0  0  0  0  0  0  0  0  0  0  0
   -9.5490    9.0184    0.0000 C   0  0  0  0  0  0  0  0  0  0  0  0
  -10.2635    8.6059    0.0000 N   0  0  0  0  0  0  0  0  0  0  0  0
   -9.5490    9.8434    0.0000 O   0  0  0  0  0  0  0  0  0  0  0  0
   -7.4056   10.2559    0.0000 C   0  0  0  0  0  0  0  0  0  0  0  0
   -7.4056   11.0809    0.0000 C   0  0  0  0  0  0  0  0  0  0  0  0
   -6.6912    9.8434    0.0000 O   0  0  0  0  0  0  0  0  0  0  0  0
   -8.1201   11.4934    0.0000 C   0  0  0  0  0  0  0  0  0  0  0  0
   -8.1201   12.3184    0.0000 C   0  0  0  0  0  0  0  0  0  0  0  0
   -8.8346   12.7309    0.0000 C   0  0  0  0  0  0  0  0  0  0  0  0
   -8.8346   13.5559    0.0000 C   0  0  0  0  0  0  0  0  0  0  0  0
   -9.5490   13.9684    0.0000 C   0  0  0  0  0  0  0  0  0  0  0  0
   -9.5490   14.7934    0.0000 C   0  0  0  0  0  0  0  0  0  0  0  0
  -10.2635   13.5559    0.0000 C   0  0  0  0  0  0  0  0  0  0  0  0
    4.0066    8.5741    0.0000 C   0  0  0  0  0  0  0  0  0  0  0  0
    4.7211    8.9866    0.0000 C   0  0  0  0  0  0  0  0  0  0  0  0
    4.7211    9.8116    0.0000 C   0  0  0  0  0  0  0  0  0  0  0  0
    4.0066   10.2241    0.0000 C   0  0  0  0  0  0  0  0  0  0  0  0
    3.2921    9.8116    0.0000 C   0  0  0  0  0  0  0  0  0  0  0  0
    5.4355   10.2241    0.0000 O   0  0  0  0  0  0  0  0  0  0  0  0
   -1.8210    7.1227    0.0000 C   0  0  0  0  0  0  0  0  0  0  0  0
   -1.5053    6.3605    0.0000 C   0  0  0  0  0  0  0  0  0  0  0  0
   -2.6389    7.2304    0.0000 O   0  0  0  0  0  0  0  0  0  0  0  0
   -3.8526    2.3866    0.0000 C   0  0  0  0  0  0  0  0  0  0  0  0
   -4.5671    2.7991    0.0000 O   0  0  0  0  0  0  0  0  0  0  0  0
   -3.1381    2.7991    0.0000 C   0  0  0  0  0  0  0  0  0  0  0  0
   -2.9866    2.0616    0.0000 H   0  0  0  0  0  0  0  0  0  0  0  0
    2.7871    6.8942    0.0000 H   0  0  0  0  0  0  0  0  0  0  0  0
   -2.2996    7.9723    0.0000 H   0  0  0  0  0  0  0  0  0  0  0  0
  1  2  1  0
  1  6  2  0
  2  3  2  0
  3  4  1  0
  4  5  2  0
  5  6  1  0
  1  7  1  0
  8  4  1  6
  8  9  1  0
  8 10  1  0
  9 11  2  0
  9 12  1  0
 12 13  1  0
 13 14  1  6
 13 15  1  0
 15 16  1  0
 15 17  2  0
 14 18  1  0
 18 19  1  0
 19 20  1  0
 16 21  1  0
 21 22  1  0
 22 23  1  0
 23 24  1  0
 24 25  1  0
 24 26  1  1
 26 27  1  0
 26 31  2  0
 27 28  2  0
 28 29  1  0
 29 30  2  0
 30 31  1  0
 29 32  1  0
 22 33  2  0
 25 34  1  0
 25 35  2  0
 34 36  1  0
 36 37  1  6
 36 38  1  0
 38 39  2  0
 38 40  1  0
 40 41  1  0
 41 42  1  0
 41 43  1  0
 42 44  1  0
 42 45  2  0
 43 46  1  6
 43 47  1  0
 44 48  1  0
 48 49  1  0
 48 50  1  6
 49 51  1  0
 49 52  2  0
 50 53  1  0
 53 54  1  0
 53 58  2  0
 54 55  2  0
 55 56  1  0
 56 57  2  0
 57 58  1  0
 51 59  1  0
 59 60  1  0
 59 61  1  6
 61 62  1  0
 62 63  1  0
 63 64  1  0
 60 65  1  0
 60 66  2  0
 65 67  1  0
 67 68  1  1
 67 69  1  0
 69 70  1  0
 69 71  2  0
 68 72  1  0
 68 76  2  0
 72 73  2  0
 73 74  1  0
 74 75  2  0
 75 76  1  0
 70 77  1  0
 77 78  1  0
 78 79  1  0
 78 80  2  0
 79 81  1  0
 81 82  1  0
 81 83  1  1
 82 84  1  0
 82 85  2  0
 83 86  1  0
 83 90  2  0
 86 87  2  0
 87 88  1  0
 88 89  2  0
 89 90  1  0
 88 91  1  0
 74 92  1  0
 93 92  1  6
 93 94  1  0
 98 93  1  0
 94 95  1  0
 95 96  1  0
 96 97  1  0
 97 98  1  0
 95 99  1  1
 99100  1  0
 96101  1  6
 97102  1  1
 98103  1  1
104103  1  6
104105  1  0
109104  1  0
105106  1  0
106107  1  0
107108  1  0
108109  1  0
108110  1  1
110111  1  0
107112  1  6
106113  1  1
105114  1  1
 84115  1  0
115116  1  0
116117  1  0
116118  2  0
117119  1  0
119120  1  1
119121  1  0
121122  1  0
121123  2  0
120124  1  0
124125  1  0
124126  1  0
122127  1  0
127128  1  0
127129  1  1
128130  1  0
128131  2  0
130132  1  0
132133  1  0
132134  1  1
134135  1  0
134139  2  0
135136  2  0
136137  1  0
137138  2  0
138139  1  0
138140  1  0
137141  1  0
133142  1  0
133143  2  0
142144  1  0
144145  1  0
144146  1  1
146147  1  0
146148  2  0
 10149  1  0
149145  1  0
149150  2  0
145151  1  6
151152  1  0
152153  1  0
152154  2  0
153155  1  6
153156  1  0
155157  1  0
157158  1  0
157159  2  0
156160  1  0
160161  1  0
160162  2  0
161163  2  0
163164  1  0
164165  2  0
165166  1  0
166167  1  0
167168  1  0
167169  1  0
 37170  1  0
 37174  2  0
170171  2  0
171172  1  0
172173  2  0
173174  1  0
172175  1  0
 21176  1  0
176177  1  1
176178  1  0
 77179  1  0
179180  1  6
179181  1  0
 77182  1  6
 41183  1  6
 21184  1  6
M  END
> <chembl_id>
CHEMBL3989605

> <chembl_pref_name>
RAMOPLANIN A2 (MAIN COMPONENT)

$$$$

     RDKit          2D

 25 28  0  0  0  0  0  0  0  0999 V2000
   -0.3625   -0.2792    0.0000 N   0  0  0  0  0  0  0  0  0  0  0  0
    0.7042    0.2458    0.0000 C   0  0  0  0  0  0  0  0  0  0  0  0
   -0.3750   -1.3750    0.0000 C   0  0  0  0  0  0  0  0  0  0  0  0
    0.9875    1.4375    0.0000 C   0  0  0  0  0  0  0  0  0  0  0  0
    0.2292    2.3458    0.0000 C   0  0  0  0  0  0  0  0  0  0  0  0
   -0.9833    2.3458    0.0000 N   0  0  0  0  0  0  0  0  0  0  0  0
   -1.4583    0.2583    0.0000 C   0  0  0  0  0  0  0  0  0  0  0  0
    0.6625   -1.9792    0.0000 C   0  0  0  0  0  0  0  0  0  0  0  0
   -1.7083    1.4208    0.0000 C   0  0  0  0  0  0  0  0  0  0  0  0
    1.5500   -0.5875    0.0000 N   0  0  0  0  0  0  0  0  0  0  0  0
    2.6750   -2.0042    0.0000 N   0  0  0  0  0  0  0  0  0  0  0  0
    1.7292   -1.3417    0.0000 C   0  0  0  0  0  0  0  0  0  0  0  0
   -1.3458   -2.0750    0.0000 O   0  0  0  0  0  0  0  0  0  0  0  0
    0.7500    3.4458    0.0000 O   0  0  0  0  0  0  0  0  0  0  0  0
    2.1125    1.7583    0.0000 C   0  0  0  0  0  0  0  0  0  0  0  0
    0.6625   -3.0417    0.0000 C   0  0  0  0  0  0  0  0  0  0  0  0
   -2.3250   -0.5292    0.0000 C   0  0  0  0  0  0  0  0  0  0  0  0
    2.6750   -3.0417    0.0000 C   0  0  0  0  0  0  0  0  0  0  0  0
   -2.8458    1.8000    0.0000 C   0  0  0  0  0  0  0  0  0  0  0  0
    3.7375   -1.5000    0.0000 C   0  0  0  0  0  0  0  0  0  0  0  0
    1.7292   -3.5917    0.0000 C   0  0  0  0  0  0  0  0  0  0  0  0
    2.7000   -0.2375    0.0000 C   0  0  0  0  0  0  0  0  0  0  0  0
    2.9792    0.9333    0.0000 C   0  0  0  0  0  0  0  0  0  0  0  0
   -3.4625   -0.1792    0.0000 C   0  0  0  0  0  0  0  0  0  0  0  0
   -3.7458    1.0000    0.0000 C   0  0  0  0  0  0  0  0  0  0  0  0
  2  1  1  0
  3  1  1  0
  4  2  2  0
  5  4  1  0
  6  9  1  0
  7  1  1  0
  8  3  1  0
  9  7  2  0
 10  2  1  0
 11 12  1  0
 12  8  1  0
 13  3  2  0
 14  5  2  0
 15  4  1  0
 16  8  1  0
 17  7  1  0
 18 21  1  0
 19  9  1  0
 20 11  1  0
 21 16  1  0
 22 10  2  0
 23 22  1  0
 24 17  2  0
 25 24  1  0
  5  6  1  0
 19 25  2  0
 15 23  2  0
 11 18  1  0
M  END
> <chembl_id>
CHEMBL2106612

> <chembl_pref_name>
RISPENZEPINE

$$$$

     RDKit          2D

 27 29  0  0  1  0  0  0  0  0999 V2000
   -3.4833    3.3083    0.0000 N   0  0  0  0  0  0  0  0  0  0  0  0
    0.2542    1.3583    0.0000 C   0  0  0  0  0  0  0  0  0  0  0  0
    1.2750    0.9458    0.0000 C   0  0  0  0  0  0  0  0  0  0  0  0
   -2.7958    2.0208    0.0000 C   0  0  0  0  0  0  0  0  0  0  0  0
   -2.6375    2.7458    0.0000 C   0  0  0  0  0  0  0  0  0  0  0  0
   -0.8458    1.8458    0.0000 C   0  0  0  0  0  0  0  0  0  0  0  0
   -0.7333    1.0125    0.0000 O   0  0  0  0  0  0  0  0  0  0  0  0
   -1.8625    2.2708    0.0000 C   0  0  0  0  0  0  0  0  0  0  0  0
   -1.6625    2.8083    0.0000 C   0  0  0  0  0  0  0  0  0  0  0  0
    1.6125   -0.0292    0.0000 C   0  0  0  0  0  0  0  0  0  0  0  0
    0.7667   -1.8667    0.0000 C   0  0  0  0  0  0  0  0  0  0  0  0
    0.2542    2.5833    0.0000 O   0  0  0  0  0  0  0  0  0  0  0  0
    2.1792    1.6458    0.0000 C   0  0  0  0  0  0  0  0  0  0  0  0
    0.6792   -0.7042    0.0000 O   0  0  0  0  0  0  0  0  0  0  0  0
   -3.4083    2.0333    0.0000 C   0  0  0  0  0  0  0  0  0  0  0  0
   -3.3000    1.2458    0.0000 C   0  0  0  0  0  0  0  0  0  0  0  0
    1.8042   -2.5125    0.0000 O   0  0  0  0  0  0  0  0  0  0  0  0
   -4.1625    3.2958    0.0000 C   0  0  0  0  0  0  0  0  0  0  0  0
   -0.0875   -2.4542    0.0000 C   0  0  0  0  0  0  0  0  0  0  0  0
    2.0042    2.7708    0.0000 C   0  0  0  0  0  0  0  0  0  0  0  0
    3.2542    1.2000    0.0000 C   0  0  0  0  0  0  0  0  0  0  0  0
   -0.0458   -3.5917    0.0000 C   0  0  0  0  0  0  0  0  0  0  0  0
    2.9292    3.4958    0.0000 C   0  0  0  0  0  0  0  0  0  0  0  0
    4.1542    1.9208    0.0000 C   0  0  0  0  0  0  0  0  0  0  0  0
    3.9917    3.0583    0.0000 C   0  0  0  0  0  0  0  0  0  0  0  0
   -2.2208    3.4708    0.0000 H   0  0  0  0  0  0  0  0  0  0  0  0
   -2.4625    0.9958    0.0000 H   0  0  0  0  0  0  0  0  0  0  0  0
  2  7  1  0
  3  2  1  0
  4  1  1  0
  5  1  1  0
  6  9  1  0
  6  7  1  6
  8  4  1  0
  9  5  1  0
 10  3  1  0
 11 14  1  0
 12  2  2  0
 13  3  1  0
 14 10  1  0
 15  5  1  0
 16  4  1  0
 17 11  2  0
 18  1  1  0
 19 11  1  0
 20 13  1  0
 21 13  2  0
 22 19  1  0
 23 20  2  0
 24 21  1  0
 25 24  2  0
  5 26  1  6
  4 27  1  1
 15 16  1  0
  8  6  1  0
 23 25  1  0
M  END
> <chembl_id>
CHEMBL2105210

> <chembl_pref_name>
PRAMPINE

$$$$

     RDKit          2D

 22 24  0  0  0  0  0  0  0  0999 V2000
    0.1917   -0.1500    0.0000 C   0  0  0  0  0  0  0  0  0  0  0  0
    1.1917   -0.3917    0.0000 C   0  0  0  0  0  0  0  0  0  0  0  0
    2.0042    0.2458    0.0000 C   0  0  0  0  0  0  0  0  0  0  0  0
    2.0167    1.2750    0.0000 N   0  0  0  0  0  0  0  0  0  0  0  0
   -0.2458    0.7833    0.0000 C   0  0  0  0  0  0  0  0  0  0  0  0
    2.9625   -0.1417    0.0000 C   0  0  0  0  0  0  0  0  0  0  0  0
    1.3375   -1.4125    0.0000 C   0  0  0  0  0  0  0  0  0  0  0  0
   -0.4625   -0.9500    0.0000 C   0  0  0  0  0  0  0  0  0  0  0  0
    0.2125    1.7083    0.0000 C   0  0  0  0  0  0  0  0  0  0  0  0
    1.2167    1.9250    0.0000 C   0  0  0  0  0  0  0  0  0  0  0  0
    3.1042   -1.1667    0.0000 C   0  0  0  0  0  0  0  0  0  0  0  0
    2.2917   -1.8000    0.0000 C   0  0  0  0  0  0  0  0  0  0  0  0
   -3.1500   -1.4167    0.0000 N   0  0  0  0  0  0  0  0  0  0  0  0
    4.0625   -1.5542    0.0000 Cl  0  0  0  0  0  0  0  0  0  0  0  0
   -1.4833   -0.7792    0.0000 C   0  0  0  0  0  0  0  0  0  0  0  0
   -1.2833    0.7208    0.0000 C   0  0  0  0  0  0  0  0  0  0  0  0
   -2.1333   -1.5792    0.0000 C   0  0  0  0  0  0  0  0  0  0  0  0
   -0.3625    2.5708    0.0000 C   0  0  0  0  0  0  0  0  0  0  0  0
   -3.8000   -2.2167    0.0000 C   0  0  0  0  0  0  0  0  0  0  0  0
   -3.5208   -0.4542    0.0000 C   0  0  0  0  0  0  0  0  0  0  0  0
   -1.8458    1.5833    0.0000 C   0  0  0  0  0  0  0  0  0  0  0  0
   -1.3958    2.5000    0.0000 C   0  0  0  0  0  0  0  0  0  0  0  0
  2  1  1  0
  3  2  2  0
  4  3  1  0
  5  1  1  0
  6  3  1  0
  7  2  1  0
  8  1  2  0
  9  5  2  0
 10  9  1  0
 11 12  1  0
 12  7  2  0
 13 17  1  0
 14 11  1  0
 15  8  1  0
 16  5  1  0
 17 15  1  0
 18  9  1  0
 19 13  1  0
 20 13  1  0
 21 16  2  0
 22 21  1  0
  4 10  1  0
 18 22  2  0
  6 11  2  0
M  END
> <chembl_id>
CHEMBL2105588

> <chembl_pref_name>
ELANZEPINE

$$$$

     RDKit          2D

 21 23  0  0  0  0  0  0  0  0999 V2000
   -0.5833   -1.0000    0.0000 N   0  0  0  0  0  0  0  0  0  0  0  0
   -1.1833   -1.8667    0.0000 C   0  0  0  0  0  0  0  0  0  0  0  0
   -0.9208   -2.8625    0.0000 C   0  0  0  0  0  0  0  0  0  0  0  0
    0.4542   -0.9292    0.0000 C   0  0  0  0  0  0  0  0  0  0  0  0
    0.0417   -3.2750    0.0000 C   0  0  0  0  0  0  0  0  0  0  0  0
    1.1542   -1.7250    0.0000 C   0  0  0  0  0  0  0  0  0  0  0  0
    0.9625   -2.7667    0.0000 C   0  0  0  0  0  0  0  0  0  0  0  0
   -1.0875   -0.0542    0.0000 C   0  0  0  0  0  0  0  0  0  0  0  0
   -0.5333    0.8375    0.0000 C   0  0  0  0  0  0  0  0  0  0  0  0
   -0.4833    2.6750    0.0000 N   0  0  0  0  0  0  0  0  0  0  0  0
   -1.6708   -3.5875    0.0000 C   0  0  0  0  0  0  0  0  0  0  0  0
   -2.2000   -1.6042    0.0000 C   0  0  0  0  0  0  0  0  0  0  0  0
   -1.0458    1.7583    0.0000 C   0  0  0  0  0  0  0  0  0  0  0  0
    1.7875   -3.4167    0.0000 C   0  0  0  0  0  0  0  0  0  0  0  0
    2.1500   -1.3375    0.0000 C   0  0  0  0  0  0  0  0  0  0  0  0
    0.5792    2.6250    0.0000 C   0  0  0  0  0  0  0  0  0  0  0  0
   -0.9708    3.5958    0.0000 C   0  0  0  0  0  0  0  0  0  0  0  0
   -2.6833   -3.3167    0.0000 C   0  0  0  0  0  0  0  0  0  0  0  0
   -2.9583   -2.3542    0.0000 C   0  0  0  0  0  0  0  0  0  0  0  0
    2.9500   -2.0167    0.0000 C   0  0  0  0  0  0  0  0  0  0  0  0
    2.7792   -3.0542    0.0000 C   0  0  0  0  0  0  0  0  0  0  0  0
  2  1  1  0
  3  2  2  0
  4  1  1  0
  5  3  1  0
  6  4  1  0
  7  6  2  0
  8  1  1  0
  9  8  1  0
 10 13  1  0
 11  3  1  0
 12  2  1  0
 13  9  1  0
 14  7  1  0
 15  6  1  0
 16 10  1  0
 17 10  1  0
 18 19  1  0
 19 12  2  0
 20 15  2  0
 21 20  1  0
  5  7  1  0
 11 18  2  0
 14 21  2  0
M  END
> <chembl_id>
CHEMBL2105257

> <chembl_pref_name>
PRAZEPINE

$$$$

     RDKit          2D

 13 12  0  0  0  0  0  0  0  0999 V2000
    0.6792   -5.1250    0.0000 S   0  0  0  0  0  0  0  0  0  0  0  0
    1.2926   -4.7708    0.0000 O   0  0  0  0  0  0  0  0  0  0  0  0
    0.0657   -4.7708    0.0000 O   0  0  0  0  0  0  0  0  0  0  0  0
    0.6792   -5.8333    0.0000 O   0  0  0  0  0  0  0  0  0  0  0  0
    3.1625   -5.4833    0.0000 C   0  0  0  0  0  0  0  0  0  0  0  0
    3.1583   -4.7708    0.0000 N   0  0  0  0  0  0  0  0  0  0  0  0
    2.5500   -5.8333    0.0000 N   0  0  0  0  0  0  0  0  0  0  0  0
    3.7833   -5.8333    0.0000 N   0  0  0  0  0  0  0  0  0  0  0  0
    2.5458   -4.4167    0.0000 C   0  0  0  0  0  0  0  0  0  0  0  0
    3.7792   -4.4083    0.0000 C   0  0  0  0  0  0  0  0  0  0  0  0
    2.5458   -3.7042    0.0000 C   0  0  0  0  0  0  0  0  0  0  0  0
    3.7750   -3.7042    0.0000 C   0  0  0  0  0  0  0  0  0  0  0  0
    3.1583   -3.3500    0.0000 C   0  0  0  0  0  0  0  0  0  0  0  0
  1  2  1  0
  1  3  1  0
  1  4  2  0
  8  5  1  0
  9  6  1  0
 10  6  1  0
 11  9  1  0
 12 10  1  0
 13 12  1  0
 11 13  1  0
  6  5  1  0
  7  5  2  0
M  END
> <chembl_id>
CHEMBL216318

> <chembl_pref_name>
None

$$$$

     RDKit          2D

 45 49  0  0  1  0  0  0  0  0999 V2000
   -1.0250    2.2958    0.0000 C   0  0  0  0  0  0  0  0  0  0  0  0
   -2.4125    2.3208    0.0000 C   0  0  0  0  0  0  0  0  0  0  0  0
   -1.7333    1.8583    0.0000 C   0  0  0  0  0  0  0  0  0  0  0  0
   -1.0250    3.0208    0.0000 C   0  0  0  0  0  0  0  0  0  0  0  0
   -2.4208    3.0833    0.0000 C   0  0  0  0  0  0  0  0  0  0  0  0
   -1.6958    3.4625    0.0000 N   0  0  0  0  0  0  0  0  0  0  0  0
   -1.2333   -0.7792    0.0000 N   0  0  0  0  0  0  0  0  0  0  0  0
   -2.0333    1.0875    0.0000 C   0  0  0  0  0  0  0  0  0  0  0  0
    2.1667   -1.5625    0.0000 C   0  0  0  0  0  0  0  0  0  0  0  0
   -2.9458    2.1083    0.0000 C   0  0  0  0  0  0  0  0  0  0  0  0
   -0.3458    1.8333    0.0000 C   0  0  0  0  0  0  0  0  0  0  0  0
   -1.7500   -0.2167    0.0000 C   0  0  0  0  0  0  0  0  0  0  0  0
   -1.5125    0.5208    0.0000 C   0  0  0  0  0  0  0  0  0  0  0  0
    2.0292    0.0583    0.0000 N   0  0  0  0  0  0  0  0  0  0  0  0
    2.8167   -1.1375    0.0000 C   0  0  0  0  0  0  0  0  0  0  0  0
    1.4000   -1.2167    0.0000 C   0  0  0  0  0  0  0  0  0  0  0  0
   -0.4583   -0.6375    0.0000 O   0  0  0  0  0  0  0  0  0  0  0  0
   -1.4833   -1.5292    0.0000 O   0  0  0  0  0  0  0  0  0  0  0  0
    1.6167   -2.1667    0.0000 C   0  0  0  0  0  0  0  0  0  0  0  0
    2.8792   -1.9292    0.0000 C   0  0  0  0  0  0  0  0  0  0  0  0
   -2.9833    1.2833    0.0000 O   0  0  0  0  0  0  0  0  0  0  0  0
   -0.3458    1.0708    0.0000 O   0  0  0  0  0  0  0  0  0  0  0  0
    2.7542   -0.3042    0.0000 C   0  0  0  0  0  0  0  0  0  0  0  0
    1.3292   -0.4042    0.0000 C   0  0  0  0  0  0  0  0  0  0  0  0
    0.4417    2.1958    0.0000 O   0  0  0  0  0  0  0  0  0  0  0  0
   -3.6458    2.5250    0.0000 O   0  0  0  0  0  0  0  0  0  0  0  0
   -3.0583    3.5000    0.0000 C   0  0  0  0  0  0  0  0  0  0  0  0
   -0.2625    3.3583    0.0000 C   0  0  0  0  0  0  0  0  0  0  0  0
   -2.7583    0.9208    0.0000 C   0  0  0  0  0  0  0  0  0  0  0  0
    1.9667    0.8500    0.0000 C   0  0  0  0  0  0  0  0  0  0  0  0
    1.2792    1.2333    0.0000 C   0  0  0  0  0  0  0  0  0  0  0  0
   -2.5000   -0.3500    0.0000 C   0  0  0  0  0  0  0  0  0  0  0  0
   -2.9958    0.1958    0.0000 C   0  0  0  0  0  0  0  0  0  0  0  0
    1.2917    1.8625    0.0000 C   0  0  0  0  0  0  0  0  0  0  0  0
    3.5542   -1.4792    0.0000 C   0  0  0  0  0  0  0  0  0  0  0  0
    1.8750   -2.9542    0.0000 C   0  0  0  0  0  0  0  0  0  0  0  0
    0.8042   -2.0250    0.0000 C   0  0  0  0  0  0  0  0  0  0  0  0
    2.9625   -2.7542    0.0000 C   0  0  0  0  0  0  0  0  0  0  0  0
   -4.3458    2.1875    0.0000 C   0  0  0  0  0  0  0  0  0  0  0  0
    3.6542   -3.1000    0.0000 C   0  0  0  0  0  0  0  0  0  0  0  0
    4.2917   -1.8250    0.0000 C   0  0  0  0  0  0  0  0  0  0  0  0
    1.3167   -3.5500    0.0000 C   0  0  0  0  0  0  0  0  0  0  0  0
    0.2667   -2.6167    0.0000 C   0  0  0  0  0  0  0  0  0  0  0  0
    0.5042   -3.3917    0.0000 C   0  0  0  0  0  0  0  0  0  0  0  0
    4.3417   -2.6375    0.0000 C   0  0  0  0  0  0  0  0  0  0  0  0
  2  3  1  0
  3  1  1  0
  4  1  2  0
  5  6  1  0
  6  4  1  0
  7 12  1  0
  3  8  1  6
  9 16  1  0
 10  2  1  0
 11  1  1  0
 12 13  2  0
 13  8  1  0
 14 30  1  0
 15 23  1  0
 16 24  1  0
 17  7  1  0
 18  7  2  0
 19  9  1  0
 20  9  1  0
 21 10  2  0
 22 11  2  0
 23 14  1  0
 24 14  1  0
 25 11  1  0
 26 10  1  0
 27  5  1  0
 28  4  1  0
 29  8  2  0
 30 31  1  0
 31 34  1  0
 32 33  2  0
 33 29  1  0
 34 25  1  0
 35 20  2  0
 36 19  2  0
 37 19  1  0
 38 20  1  0
 39 26  1  0
 40 38  2  0
 41 35  1  0
 42 36  1  0
 43 37  2  0
 44 43  1  0
 45 40  1  0
  2  5  2  0
 12 32  1  0
 15  9  1  0
 41 45  2  0
 42 44  2  0
M  CHG  2   7   1  17  -1
M  END
> <chembl_id>
CHEMBL2051956

> <chembl_pref_name>
DEXNIGULDIPINE

$$$$

     RDKit          2D

 57 62  0  0  1  0  0  0  0  0999 V2000
    1.7042   -0.8000    0.0000 C   0  0  0  0  0  0  0  0  0  0  0  0
    1.2375   -1.0792    0.0000 C   0  0  0  0  0  0  0  0  0  0  0  0
    1.2375   -1.6792    0.0000 C   0  0  0  0  0  0  0  0  0  0  0  0
   -3.8958    1.7500    0.0000 S   0  0  0  0  0  0  0  0  0  0  0  0
    1.7042   -0.2292    0.0000 C   0  0  0  0  0  0  0  0  0  0  0  0
    2.2167   -1.0792    0.0000 C   0  0  0  0  0  0  0  0  0  0  0  0
    2.6167    1.4208    0.0000 C   0  0  0  0  0  0  0  0  0  0  0  0
    2.2167   -1.6792    0.0000 C   0  0  0  0  0  0  0  0  0  0  0  0
    0.6792   -1.8042    0.0000 O   0  0  0  0  0  0  0  0  0  0  0  0
    0.6417   -0.9167    0.0000 C   0  0  0  0  0  0  0  0  0  0  0  0
    1.7042   -1.9500    0.0000 C   0  0  0  0  0  0  0  0  0  0  0  0
    2.1250   -0.0292    0.0000 O   0  0  0  0  0  0  0  0  0  0  0  0
    3.1167    1.0750    0.0000 O   0  0  0  0  0  0  0  0  0  0  0  0
   -3.4083    1.4458    0.0000 N   0  0  0  0  0  0  0  0  0  0  0  0
    2.6250    0.8208    0.0000 C   0  0  0  0  0  0  0  0  0  0  0  0
    2.0875    1.6833    0.0000 O   0  0  0  0  0  0  0  0  0  0  0  0
    2.1250    0.5250    0.0000 C   0  0  0  0  0  0  0  0  0  0  0  0
    0.0917    1.6500    0.0000 C   0  0  0  0  0  0  0  0  0  0  0  0
    0.5917    1.3458    0.0000 C   0  0  0  0  0  0  0  0  0  0  0  0
    0.2792   -1.3750    0.0000 C   0  0  0  0  0  0  0  0  0  0  0  0
   -0.4083    1.3458    0.0000 C   0  0  0  0  0  0  0  0  0  0  0  0
   -3.5833    2.2250    0.0000 O   0  0  0  0  0  0  0  0  0  0  0  0
   -4.2250    1.2708    0.0000 O   0  0  0  0  0  0  0  0  0  0  0  0
    3.6375    1.3833    0.0000 C   0  0  0  0  0  0  0  0  0  0  0  0
   -2.9000    1.7208    0.0000 C   0  0  0  0  0  0  0  0  0  0  0  0
    0.6417   -0.4292    0.0000 C   0  0  0  0  0  0  0  0  0  0  0  0
    1.2375    0.0958    0.0000 O   0  0  0  0  0  0  0  0  0  0  0  0
    0.0917   -0.0917    0.0000 C   0  0  0  0  0  0  0  0  0  0  0  0
    1.6167    0.8083    0.0000 C   0  0  0  0  0  0  0  0  0  0  0  0
    1.6167    1.3958    0.0000 C   0  0  0  0  0  0  0  0  0  0  0  0
    0.0875    0.4833    0.0000 C   0  0  0  0  0  0  0  0  0  0  0  0
    1.1667   -0.4417    0.0000 O   0  0  0  0  0  0  0  0  0  0  0  0
    2.6625    1.9750    0.0000 C   0  0  0  0  0  0  0  0  0  0  0  0
   -0.4083    0.7833    0.0000 C   0  0  0  0  0  0  0  0  0  0  0  0
    3.6375    1.8583    0.0000 C   0  0  0  0  0  0  0  0  0  0  0  0
   -2.8833    2.3000    0.0000 C   0  0  0  0  0  0  0  0  0  0  0  0
   -2.3833    1.4083    0.0000 C   0  0  0  0  0  0  0  0  0  0  0  0
    3.1375    2.2083    0.0000 C   0  0  0  0  0  0  0  0  0  0  0  0
    1.0875    1.6500    0.0000 C   0  0  0  0  0  0  0  0  0  0  0  0
   -4.3458    2.0458    0.0000 C   0  0  0  0  0  0  0  0  0  0  0  0
    1.7042   -2.4542    0.0000 O   0  0  0  0  0  0  0  0  0  0  0  0
   -0.9000    1.6458    0.0000 O   0  0  0  0  0  0  0  0  0  0  0  0
   -1.8583    1.7083    0.0000 C   0  0  0  0  0  0  0  0  0  0  0  0
   -2.3458    2.5708    0.0000 C   0  0  0  0  0  0  0  0  0  0  0  0
   -1.8583    2.2333    0.0000 C   0  0  0  0  0  0  0  0  0  0  0  0
    2.6917   -1.9667    0.0000 C   0  0  0  0  0  0  0  0  0  0  0  0
   -0.9000    2.2208    0.0000 C   0  0  0  0  0  0  0  0  0  0  0  0
   -3.4458    0.8583    0.0000 C   0  0  0  0  0  0  0  0  0  0  0  0
    0.0917    2.1083    0.0000 C   0  0  0  0  0  0  0  0  0  0  0  0
    4.3417    1.0958    0.0000 C   0  0  0  0  0  0  0  0  0  0  0  0
   -1.3458    2.5208    0.0000 C   0  0  0  0  0  0  0  0  0  0  0  0
   -0.8625    0.4208    0.0000 C   0  0  0  0  0  0  0  0  0  0  0  0
    4.2542    2.0333    0.0000 C   0  0  0  0  0  0  0  0  0  0  0  0
    1.5665    2.3945    0.0000 H   0  0  0  0  0  0  0  0  0  0  0  0
    2.9937    0.0296    0.0000 H   0  0  0  0  0  0  0  0  0  0  0  0
    1.0853   -2.6676    0.0000 H   0  0  0  0  0  0  0  0  0  0  0  0
    2.5640   -0.2893    0.0000 H   0  0  0  0  0  0  0  0  0  0  0  0
  2  1  1  0
  3  2  1  0
  4 14  1  0
  1  5  1  0
  6  1  1  0
  7 15  1  1
  8  6  2  0
  9  3  1  0
 10  2  1  0
 11  8  1  0
 12  5  1  0
  7 13  1  0
 14 25  1  0
 15 17  1  0
 16 30  1  0
 17 12  1  0
 18 19  2  0
 19 39  1  0
 20 10  1  0
 21 34  1  0
 22  4  2  0
 23  4  2  0
 24 13  1  0
 25 36  1  0
 26 10  2  0
 27  5  2  0
 28 26  1  0
 29 17  1  0
 30 29  1  0
 31 28  2  0
  2 32  1  6
  7 33  1  0
 34 31  1  0
 35 38  1  0
 36 44  2  0
 37 43  1  0
 38 33  1  0
 30 39  1  0
 40  4  1  0
 11 41  1  1
 21 42  1  1
 43 45  2  0
 44 45  1  0
 45 51  1  0
 46  8  1  0
 47 42  1  0
 48 14  1  0
 49 18  1  0
 24 50  1  1
 51 47  1  0
 34 52  1  6
 35 53  1  6
  3 11  1  0
  9 20  1  0
  7 16  1  0
 21 18  1  0
 24 35  1  0
 37 25  2  0
 30 54  1  6
 17 55  1  6
  3 56  1  6
  1 57  1  1
M  END
> <chembl_id>
CHEMBL2106449

> <chembl_pref_name>
FULADECTIN COMPONENT A3

$$$$

     RDKit          2D

 63 69  0  0  1  0  0  0  0  0999 V2000
    8.1292   -5.3500    0.0000 C   0  0  0  0  0  0  0  0  0  0  0  0
    7.4292   -5.7167    0.0000 C   0  0  0  0  0  0  0  0  0  0  0  0
    7.4292   -6.5417    0.0000 C   0  0  0  0  0  0  0  0  0  0  0  0
    8.1292   -4.6375    0.0000 C   0  0  0  0  0  0  0  0  0  0  0  0
    9.6167   -2.0417    0.0000 C   0  0  0  0  0  0  0  0  0  0  0  0
    8.8542   -5.7167    0.0000 C   0  0  0  0  0  0  0  0  0  0  0  0
    8.8542   -6.5417    0.0000 C   0  0  0  0  0  0  0  0  0  0  0  0
    6.1667   -6.5417    0.0000 O   0  0  0  0  0  0  0  0  0  0  0  0
    6.7875   -5.3917    0.0000 C   0  0  0  0  0  0  0  0  0  0  0  0
    2.4292   -0.2667    0.0000 C   0  0  0  0  0  0  0  0  0  0  0  0
    8.1292   -6.9292    0.0000 C   0  0  0  0  0  0  0  0  0  0  0  0
   10.4375   -2.4125    0.0000 O   0  0  0  0  0  0  0  0  0  0  0  0
    1.0750   -0.3250    0.0000 C   0  0  0  0  0  0  0  0  0  0  0  0
    3.6667   -1.0125    0.0000 C   0  0  0  0  0  0  0  0  0  0  0  0
    8.8750   -4.2125    0.0000 O   0  0  0  0  0  0  0  0  0  0  0  0
    3.0500   -1.3542    0.0000 O   0  0  0  0  0  0  0  0  0  0  0  0
    1.0750   -1.1792    0.0000 O   0  0  0  0  0  0  0  0  0  0  0  0
    3.6667   -0.2667    0.0000 C   0  0  0  0  0  0  0  0  0  0  0  0
    0.3625    0.1000    0.0000 C   0  0  0  0  0  0  0  0  0  0  0  0
    3.0500    0.0583    0.0000 C   0  0  0  0  0  0  0  0  0  0  0  0
   -0.3708   -1.1167    0.0000 C   0  0  0  0  0  0  0  0  0  0  0  0
    5.2167   -2.0417    0.0000 C   0  0  0  0  0  0  0  0  0  0  0  0
    9.6167   -2.9167    0.0000 C   0  0  0  0  0  0  0  0  0  0  0  0
    8.8750   -1.6167    0.0000 O   0  0  0  0  0  0  0  0  0  0  0  0
    2.4292   -1.0125    0.0000 C   0  0  0  0  0  0  0  0  0  0  0  0
   11.1250   -1.9875    0.0000 C   0  0  0  0  0  0  0  0  0  0  0  0
   -0.3708   -0.2667    0.0000 C   0  0  0  0  0  0  0  0  0  0  0  0
    8.8875   -3.3417    0.0000 C   0  0  0  0  0  0  0  0  0  0  0  0
    0.3167   -1.5750    0.0000 C   0  0  0  0  0  0  0  0  0  0  0  0
    5.9500   -1.6167    0.0000 C   0  0  0  0  0  0  0  0  0  0  0  0
    1.7875    0.0708    0.0000 O   0  0  0  0  0  0  0  0  0  0  0  0
    9.6167   -1.1167    0.0000 C   0  0  0  0  0  0  0  0  0  0  0  0
    4.5500   -1.6167    0.0000 O   0  0  0  0  0  0  0  0  0  0  0  0
   10.3542   -0.7667    0.0000 C   0  0  0  0  0  0  0  0  0  0  0  0
    6.6750   -2.0417    0.0000 C   0  0  0  0  0  0  0  0  0  0  0  0
    6.1667   -5.7917    0.0000 C   0  0  0  0  0  0  0  0  0  0  0  0
    6.7875   -4.6625    0.0000 C   0  0  0  0  0  0  0  0  0  0  0  0
    7.3917   -4.1917    0.0000 O   0  0  0  0  0  0  0  0  0  0  0  0
    5.9625   -4.1792    0.0000 C   0  0  0  0  0  0  0  0  0  0  0  0
   11.1250   -1.0917    0.0000 C   0  0  0  0  0  0  0  0  0  0  0  0
    8.1292   -2.8917    0.0000 C   0  0  0  0  0  0  0  0  0  0  0  0
    8.1292   -2.0000    0.0000 C   0  0  0  0  0  0  0  0  0  0  0  0
    5.2042   -2.8917    0.0000 C   0  0  0  0  0  0  0  0  0  0  0  0
    5.9625   -3.3292    0.0000 C   0  0  0  0  0  0  0  0  0  0  0  0
    7.4292   -5.1042    0.0000 O   0  0  0  0  0  0  0  0  0  0  0  0
    7.3917   -1.6042    0.0000 C   0  0  0  0  0  0  0  0  0  0  0  0
   11.8792   -2.4125    0.0000 C   0  0  0  0  0  0  0  0  0  0  0  0
    8.1292   -7.7792    0.0000 O   0  0  0  0  0  0  0  0  0  0  0  0
   -1.1208   -1.5417    0.0000 O   0  0  0  0  0  0  0  0  0  0  0  0
    3.0500    0.7833    0.0000 O   0  0  0  0  0  0  0  0  0  0  0  0
   -1.0833    0.1250    0.0000 O   0  0  0  0  0  0  0  0  0  0  0  0
    9.5667   -7.0375    0.0000 C   0  0  0  0  0  0  0  0  0  0  0  0
    5.9500   -0.7792    0.0000 C   0  0  0  0  0  0  0  0  0  0  0  0
    2.0917   -1.6417    0.0000 C   0  0  0  0  0  0  0  0  0  0  0  0
    0.2792   -2.3875    0.0000 C   0  0  0  0  0  0  0  0  0  0  0  0
   11.8792   -0.6667    0.0000 C   0  0  0  0  0  0  0  0  0  0  0  0
    4.5167   -3.3417    0.0000 C   0  0  0  0  0  0  0  0  0  0  0  0
   11.8792   -3.3167    0.0000 C   0  0  0  0  0  0  0  0  0  0  0  0
   12.6042   -1.9875    0.0000 C   0  0  0  0  0  0  0  0  0  0  0  0
   -1.0833    0.9250    0.0000 C   0  0  0  0  0  0  0  0  0  0  0  0
    2.4292    1.1583    0.0000 C   0  0  0  0  0  0  0  0  0  0  0  0
   11.1667   -3.7167    0.0000 C   0  0  0  0  0  0  0  0  0  0  0  0
    9.7510   -3.8461    0.0000 H   0  0  0  0  0  0  0  0  0  0  0  0
  2  1  1  0
  3  2  1  0
  4  1  1  0
  5 23  1  1
  6  1  1  0
  7  6  2  0
  8  3  1  0
  9  2  1  0
 10 20  1  0
 11  7  1  0
  5 12  1  0
 13 31  1  0
 14 33  1  0
 15  4  1  0
 16 14  1  0
 17 13  1  0
 18 14  1  0
 19 13  1  0
 20 18  1  0
 21 27  1  0
 22 43  1  0
 23 28  1  0
 24 42  1  0
 25 16  1  0
 26 12  1  0
 27 19  1  0
 28 15  1  0
 29 17  1  0
 30 35  2  0
 10 31  1  6
  5 32  1  0
 22 33  1  6
 34 32  2  0
 35 46  1  0
 36  9  1  0
 37  9  2  0
 38  4  2  0
 39 37  1  0
 40 34  1  0
 41 28  1  0
 42 41  1  0
 43 44  1  0
 44 39  2  0
  2 45  1  6
 46 42  1  0
 47 26  1  0
 11 48  1  1
 21 49  1  6
 20 50  1  1
 27 51  1  1
 52  7  1  0
 53 30  1  0
 25 54  1  1
 29 55  1  1
 40 56  1  6
 43 57  1  6
 58 47  1  0
 59 47  1  0
 60 51  1  0
 61 50  1  0
 62 58  1  0
  3 11  1  0
  8 36  1  0
  5 24  1  0
 22 30  1  0
 26 40  1  0
 10 25  1  0
 21 29  1  0
 28 63  1  6
M  END
> <chembl_id>
CHEMBL158698

> <chembl_pref_name>
AVERMECTIN B1A

$$$$

     RDKit          2D

 39 41  0  0  0  0  0  0  0  0999 V2000
   -0.6000    0.1375    0.0000 C   0  0  0  0  0  0  0  0  0  0  0  0
   -1.9375    0.1375    0.0000 C   0  0  0  0  0  0  0  0  0  0  0  0
   -1.2625   -0.2542    0.0000 C   0  0  0  0  0  0  0  0  0  0  0  0
   -0.6000    0.9333    0.0000 C   0  0  0  0  0  0  0  0  0  0  0  0
   -1.9375    0.9333    0.0000 C   0  0  0  0  0  0  0  0  0  0  0  0
   -1.2625    1.3208    0.0000 N   0  0  0  0  0  0  0  0  0  0  0  0
   -1.2625   -1.0375    0.0000 C   0  0  0  0  0  0  0  0  0  0  0  0
   -0.0208   -2.6750    0.0000 N   0  0  0  0  0  0  0  0  0  0  0  0
    0.1000   -0.2875    0.0000 C   0  0  0  0  0  0  0  0  0  0  0  0
   -2.8083    0.1458    0.0000 C   0  0  0  0  0  0  0  0  0  0  0  0
   -0.5750   -1.4542    0.0000 C   0  0  0  0  0  0  0  0  0  0  0  0
   -0.5750   -2.2292    0.0000 C   0  0  0  0  0  0  0  0  0  0  0  0
   -1.9375   -1.4417    0.0000 C   0  0  0  0  0  0  0  0  0  0  0  0
    0.6167   -2.2542    0.0000 O   0  0  0  0  0  0  0  0  0  0  0  0
   -0.0208   -3.4542    0.0000 O   0  0  0  0  0  0  0  0  0  0  0  0
    0.7542    0.1083    0.0000 O   0  0  0  0  0  0  0  0  0  0  0  0
    2.1250    0.0333    0.0000 C   0  0  0  0  0  0  0  0  0  0  0  0
    2.7917    1.1083    0.0000 N   0  0  0  0  0  0  0  0  0  0  0  0
    0.1000   -1.0292    0.0000 O   0  0  0  0  0  0  0  0  0  0  0  0
   -3.1333   -0.5125    0.0000 O   0  0  0  0  0  0  0  0  0  0  0  0
   -1.2625   -2.6292    0.0000 C   0  0  0  0  0  0  0  0  0  0  0  0
   -1.9375   -2.2292    0.0000 C   0  0  0  0  0  0  0  0  0  0  0  0
    2.7917    0.3583    0.0000 C   0  0  0  0  0  0  0  0  0  0  0  0
    1.4292   -0.3167    0.0000 C   0  0  0  0  0  0  0  0  0  0  0  0
    3.4792    1.4958    0.0000 C   0  0  0  0  0  0  0  0  0  0  0  0
   -3.4083    0.4708    0.0000 O   0  0  0  0  0  0  0  0  0  0  0  0
   -2.3458   -0.9375    0.0000 F   0  0  0  0  0  0  0  0  0  0  0  0
   -2.6458    1.3208    0.0000 C   0  0  0  0  0  0  0  0  0  0  0  0
    0.1000    1.3333    0.0000 C   0  0  0  0  0  0  0  0  0  0  0  0
    3.4792    2.1458    0.0000 C   0  0  0  0  0  0  0  0  0  0  0  0
    2.4375   -0.5792    0.0000 C   0  0  0  0  0  0  0  0  0  0  0  0
    1.7917    0.6708    0.0000 C   0  0  0  0  0  0  0  0  0  0  0  0
    2.2375    1.5625    0.0000 C   0  0  0  0  0  0  0  0  0  0  0  0
   -4.1083    0.4708    0.0000 C   0  0  0  0  0  0  0  0  0  0  0  0
    4.1042    2.4958    0.0000 C   0  0  0  0  0  0  0  0  0  0  0  0
    2.8375    2.4958    0.0000 C   0  0  0  0  0  0  0  0  0  0  0  0
    4.1042    3.2083    0.0000 C   0  0  0  0  0  0  0  0  0  0  0  0
    2.8375    3.2333    0.0000 C   0  0  0  0  0  0  0  0  0  0  0  0
    3.4792    3.5958    0.0000 C   0  0  0  0  0  0  0  0  0  0  0  0
  2  3  1  0
  3  1  1  0
  4  1  2  0
  5  6  1  0
  6  4  1  0
  7  3  1  0
  8 12  1  0
  9  1  1  0
 10  2  1  0
 11  7  1  0
 12 11  2  0
 13  7  2  0
 14  8  1  0
 15  8  2  0
 16  9  1  0
 17 24  1  0
 18 23  1  0
 19  9  2  0
 20 10  2  0
 21 22  2  0
 22 13  1  0
 23 17  1  0
 24 16  1  0
 25 18  1  0
 26 10  1  0
 27 13  1  0
 28  5  1  0
 29  4  1  0
 30 25  1  0
 31 17  1  0
 32 17  1  0
 33 18  1  0
 34 26  1  0
 35 30  2  0
 36 30  1  0
 37 35  1  0
 38 36  2  0
 39 38  1  0
  2  5  2  0
 12 21  1  0
 37 39  2  0
M  CHG  2   8   1  14  -1
M  END
> <chembl_id>
CHEMBL2104865

> <chembl_pref_name>
PALONIDIPINE

$$$$

     RDKit          2D

 35 38  0  0  0  0  0  0  0  0999 V2000
   -1.1625    0.0458    0.0000 C   0  0  0  0  0  0  0  0  0  0  0  0
   -2.3750    0.0458    0.0000 C   0  0  0  0  0  0  0  0  0  0  0  0
   -1.7583   -0.3250    0.0000 C   0  0  0  0  0  0  0  0  0  0  0  0
   -1.1625    0.7625    0.0000 C   0  0  0  0  0  0  0  0  0  0  0  0
   -2.3750    0.7625    0.0000 C   0  0  0  0  0  0  0  0  0  0  0  0
   -1.7583    1.1083    0.0000 N   0  0  0  0  0  0  0  0  0  0  0  0
   -0.4958   -0.2500    0.0000 C   0  0  0  0  0  0  0  0  0  0  0  0
   -3.1583   -0.1375    0.0000 C   0  0  0  0  0  0  0  0  0  0  0  0
   -1.7583   -1.0375    0.0000 C   0  0  0  0  0  0  0  0  0  0  0  0
    1.7792    1.4958    0.0000 C   0  0  0  0  0  0  0  0  0  0  0  0
    1.0542    1.5208    0.0000 O   0  0  0  0  0  0  0  0  0  0  0  0
    0.8417    0.8625    0.0000 C   0  0  0  0  0  0  0  0  0  0  0  0
    1.9250    0.8083    0.0000 C   0  0  0  0  0  0  0  0  0  0  0  0
    2.9167    1.9250    0.0000 N   0  0  0  0  0  0  0  0  0  0  0  0
    1.3542    0.4083    0.0000 C   0  0  0  0  0  0  0  0  0  0  0  0
    0.1542   -0.0875    0.0000 O   0  0  0  0  0  0  0  0  0  0  0  0
   -2.3750   -1.3917    0.0000 C   0  0  0  0  0  0  0  0  0  0  0  0
    2.1917    2.0375    0.0000 C   0  0  0  0  0  0  0  0  0  0  0  0
   -0.6625   -0.9125    0.0000 O   0  0  0  0  0  0  0  0  0  0  0  0
   -3.4125   -0.8000    0.0000 O   0  0  0  0  0  0  0  0  0  0  0  0
    0.2917    0.7458    0.0000 C   0  0  0  0  0  0  0  0  0  0  0  0
   -3.7083    0.3458    0.0000 O   0  0  0  0  0  0  0  0  0  0  0  0
   -0.5208    1.1208    0.0000 C   0  0  0  0  0  0  0  0  0  0  0  0
   -3.0208    1.1083    0.0000 C   0  0  0  0  0  0  0  0  0  0  0  0
   -2.9875   -1.0417    0.0000 F   0  0  0  0  0  0  0  0  0  0  0  0
   -1.1458   -1.4167    0.0000 C   0  0  0  0  0  0  0  0  0  0  0  0
    3.3500    2.4875    0.0000 C   0  0  0  0  0  0  0  0  0  0  0  0
    3.1542    1.2625    0.0000 C   0  0  0  0  0  0  0  0  0  0  0  0
   -2.3750   -2.1167    0.0000 C   0  0  0  0  0  0  0  0  0  0  0  0
   -4.3458    0.3458    0.0000 C   0  0  0  0  0  0  0  0  0  0  0  0
   -1.1458   -2.1167    0.0000 C   0  0  0  0  0  0  0  0  0  0  0  0
    4.0667    2.3833    0.0000 C   0  0  0  0  0  0  0  0  0  0  0  0
    3.8917    1.1583    0.0000 C   0  0  0  0  0  0  0  0  0  0  0  0
   -1.7583   -2.4792    0.0000 C   0  0  0  0  0  0  0  0  0  0  0  0
    4.3417    1.7208    0.0000 C   0  0  0  0  0  0  0  0  0  0  0  0
  2  3  1  0
  3  1  1  0
  4  1  2  0
  5  6  1  0
  6  4  1  0
  7  1  1  0
  8  2  1  0
  9  3  1  0
 10 11  1  0
 11 12  1  0
 12 21  1  0
 13 15  1  0
 14 18  1  0
 15 12  2  0
 16  7  1  0
 17  9  2  0
 18 10  1  0
 19  7  2  0
 20  8  2  0
 21 16  1  0
 22  8  1  0
 23  4  1  0
 24  5  1  0
 25 17  1  0
 26  9  1  0
 27 14  1  0
 28 14  1  0
 29 17  1  0
 30 22  1  0
 31 26  2  0
 32 27  1  0
 33 28  1  0
 34 31  1  0
 35 33  1  0
  2  5  2  0
 29 34  2  0
 10 13  2  0
 32 35  1  0
M  END
> <chembl_id>
CHEMBL2107491

> <chembl_pref_name>
SAGANDIPINE

$$$$

     RDKit          2D

 25 29  0  0  1  0  0  0  0  0999 V2000
    1.3000    0.5958    0.0000 C   0  0  0  0  0  0  0  0  0  0  0  0
    0.8125   -0.4375    0.0000 C   0  0  0  0  0  0  0  0  0  0  0  0
    2.6292    1.4375    0.0000 C   0  0  0  0  0  0  0  0  0  0  0  0
    2.0417   -0.2792    0.0000 C   0  0  0  0  0  0  0  0  0  0  0  0
    1.5125   -1.3542    0.0000 C   0  0  0  0  0  0  0  0  0  0  0  0
   -2.1833    0.6833    0.0000 C   0  0  0  0  0  0  0  0  0  0  0  0
   -2.8333   -0.2167    0.0000 C   0  0  0  0  0  0  0  0  0  0  0  0
   -3.2833    0.7875    0.0000 O   0  0  0  0  0  0  0  0  0  0  0  0
    0.1792    0.6333    0.0000 C   0  0  0  0  0  0  0  0  0  0  0  0
   -0.4500   -0.4375    0.0000 C   0  0  0  0  0  0  0  0  0  0  0  0
   -1.0458    0.1125    0.0000 C   0  0  0  0  0  0  0  0  0  0  0  0
   -1.5625   -0.8625    0.0000 C   0  0  0  0  0  0  0  0  0  0  0  0
   -1.1750   -1.8000    0.0000 C   0  0  0  0  0  0  0  0  0  0  0  0
    1.1792    1.7250    0.0000 Cl  0  0  0  0  0  0  0  0  0  0  0  0
    0.2375   -1.5792    0.0000 Cl  0  0  0  0  0  0  0  0  0  0  0  0
    2.8000    2.7875    0.0000 Cl  0  0  0  0  0  0  0  0  0  0  0  0
    3.9792    1.2625    0.0000 Cl  0  0  0  0  0  0  0  0  0  0  0  0
    3.3792   -0.1917    0.0000 Cl  0  0  0  0  0  0  0  0  0  0  0  0
    1.6167   -2.6917    0.0000 Cl  0  0  0  0  0  0  0  0  0  0  0  0
    0.5625    1.9708    0.0000 H   0  0  0  0  0  0  0  0  0  0  0  0
   -0.4833    0.9458    0.0000 H   0  0  0  0  0  0  0  0  0  0  0  0
   -1.0000    1.4500    0.0000 H   0  0  0  0  0  0  0  0  0  0  0  0
   -2.5458   -1.7792    0.0000 H   0  0  0  0  0  0  0  0  0  0  0  0
   -2.5083    2.0208    0.0000 H   0  0  0  0  0  0  0  0  0  0  0  0
   -4.1750   -0.5542    0.0000 H   0  0  0  0  0  0  0  0  0  0  0  0
  2  3  1  0
  3  1  1  0
  4  1  1  0
  5  4  2  0
  6 11  1  0
  7  6  1  0
  8  6  1  0
  9  1  1  0
 10  9  1  0
 11  9  1  0
 12 10  1  0
 13 11  1  0
  1 14  1  6
  2 15  1  1
 16  3  1  0
 17  3  1  0
 18  4  1  0
 19  5  1  0
  9 20  1  1
 10 21  1  1
 11 22  1  6
 12 23  1  1
  6 24  1  1
  7 25  1  1
 10  2  1  0
  2  5  1  0
 12 13  1  0
 12  7  1  0
  7  8  1  0
M  END
> <chembl_id>
CHEMBL1873703

> <chembl_pref_name>
DIELDRIN

$$$$

     RDKit          2D

 25 28  0  0  0  0  0  0  0  0999 V2000
    2.0110   -3.2547    0.0000 C   0  0  0  0  0  0  0  0  0  0  0  0
    2.0098   -4.0820    0.0000 C   0  0  0  0  0  0  0  0  0  0  0  0
    2.7246   -4.4949    0.0000 C   0  0  0  0  0  0  0  0  0  0  0  0
    2.7228   -2.8419    0.0000 C   0  0  0  0  0  0  0  0  0  0  0  0
    3.4382   -3.2510    0.0000 C   0  0  0  0  0  0  0  0  0  0  0  0
    3.4416   -4.0841    0.0000 C   0  0  0  0  0  0  0  0  0  0  0  0
    4.1608   -4.4954    0.0000 N   0  0  0  0  0  0  0  0  0  0  0  0
    4.8812   -4.0782    0.0000 C   0  0  0  0  0  0  0  0  0  0  0  0
    4.8778   -3.2451    0.0000 N   0  0  0  0  0  0  0  0  0  0  0  0
    4.1540   -2.8293    0.0000 C   0  0  0  0  0  0  0  0  0  0  0  0
    4.1495   -2.0043    0.0000 O   0  0  0  0  0  0  0  0  0  0  0  0
    5.5899   -2.8308    0.0000 C   0  0  0  0  0  0  0  0  0  0  0  0
    6.3060   -3.2428    0.0000 C   0  0  0  0  0  0  0  0  0  0  0  0
    7.0187   -2.8288    0.0000 C   0  0  0  0  0  0  0  0  0  0  0  0
    7.0165   -2.0029    0.0000 C   0  0  0  0  0  0  0  0  0  0  0  0
    6.2958   -1.5928    0.0000 C   0  0  0  0  0  0  0  0  0  0  0  0
    5.5860   -2.0092    0.0000 C   0  0  0  0  0  0  0  0  0  0  0  0
    5.5968   -4.4888    0.0000 S   0  0  0  0  0  0  0  0  0  0  0  0
    5.5990   -5.3138    0.0000 C   0  0  0  0  0  0  0  0  0  0  0  0
    4.9327   -5.8017    0.0000 S   0  0  0  0  0  0  0  0  0  0  0  0
    5.1897   -6.5856    0.0000 C   0  0  0  0  0  0  0  0  0  0  0  0
    6.0148   -6.5833    0.0000 N   0  0  0  0  0  0  0  0  0  0  0  0
    6.2675   -5.7980    0.0000 C   0  0  0  0  0  0  0  0  0  0  0  0
    4.7066   -7.2543    0.0000 N   0  0  0  0  0  0  0  0  0  0  0  0
    1.2964   -2.8423    0.0000 C   0  0  0  0  0  0  0  0  0  0  0  0
  1  2  2  0
  2  3  1  0
  3  6  2  0
  5  4  2  0
  4  1  1  0
  5  6  1  0
  5 10  1  0
  6  7  1  0
  7  8  2  0
  8  9  1  0
  9 10  1  0
 10 11  2  0
 12 13  2  0
 13 14  1  0
 14 15  2  0
 15 16  1  0
 16 17  2  0
 17 12  1  0
  9 12  1  0
  8 18  1  0
 18 19  1  0
 19 20  1  0
 20 21  1  0
 21 22  2  0
 22 23  1  0
 23 19  2  0
 21 24  1  0
  1 25  1  0
M  END
> <chembl_id>
CHEMBL2376066

> <chembl_pref_name>
None

$$$$

     RDKit          2D

 25 28  0  0  0  0  0  0  0  0999 V2000
   -0.3583   -0.1292    0.0000 N   0  0  0  0  0  0  0  0  0  0  0  0
    0.6667    0.3458    0.0000 C   0  0  0  0  0  0  0  0  0  0  0  0
    0.9292    1.4625    0.0000 C   0  0  0  0  0  0  0  0  0  0  0  0
    0.2167    2.3708    0.0000 C   0  0  0  0  0  0  0  0  0  0  0  0
   -0.3333   -1.2792    0.0000 C   0  0  0  0  0  0  0  0  0  0  0  0
   -0.9000    2.3708    0.0000 N   0  0  0  0  0  0  0  0  0  0  0  0
   -1.4125    0.3833    0.0000 C   0  0  0  0  0  0  0  0  0  0  0  0
   -1.6500    1.5208    0.0000 C   0  0  0  0  0  0  0  0  0  0  0  0
    1.5167   -0.4500    0.0000 N   0  0  0  0  0  0  0  0  0  0  0  0
    2.6375   -2.9917    0.0000 N   0  0  0  0  0  0  0  0  0  0  0  0
    0.6417   -1.8292    0.0000 C   0  0  0  0  0  0  0  0  0  0  0  0
    0.6792    3.4208    0.0000 O   0  0  0  0  0  0  0  0  0  0  0  0
   -1.1208   -1.9542    0.0000 O   0  0  0  0  0  0  0  0  0  0  0  0
    1.6542   -1.2667    0.0000 C   0  0  0  0  0  0  0  0  0  0  0  0
    0.6292   -2.9667    0.0000 C   0  0  0  0  0  0  0  0  0  0  0  0
    1.6042   -3.5625    0.0000 C   0  0  0  0  0  0  0  0  0  0  0  0
    2.6500   -1.8542    0.0000 C   0  0  0  0  0  0  0  0  0  0  0  0
    2.0417    1.7958    0.0000 C   0  0  0  0  0  0  0  0  0  0  0  0
   -2.2583   -0.3917    0.0000 C   0  0  0  0  0  0  0  0  0  0  0  0
   -2.7333    1.8833    0.0000 C   0  0  0  0  0  0  0  0  0  0  0  0
    3.6125   -3.5875    0.0000 C   0  0  0  0  0  0  0  0  0  0  0  0
    2.6167   -0.1292    0.0000 C   0  0  0  0  0  0  0  0  0  0  0  0
    2.8875    0.9833    0.0000 C   0  0  0  0  0  0  0  0  0  0  0  0
   -3.3500   -0.0250    0.0000 C   0  0  0  0  0  0  0  0  0  0  0  0
   -3.6208    1.1208    0.0000 C   0  0  0  0  0  0  0  0  0  0  0  0
  2  1  1  0
  3  2  2  0
  4  3  1  0
  5  1  1  0
  6  8  1  0
  7  1  1  0
  8  7  2  0
  9  2  1  0
 10 16  1  0
 11  5  1  0
 12  4  2  0
 13  5  2  0
 14 11  1  0
 15 11  1  0
 16 15  1  0
 17 14  1  0
 18  3  1  0
 19  7  1  0
 20  8  1  0
 21 10  1  0
 22  9  2  0
 23 22  1  0
 24 19  2  0
 25 24  1  0
  4  6  1  0
 20 25  2  0
 17 10  1  0
 18 23  2  0
M  END
> <chembl_id>
CHEMBL2107170

> <chembl_pref_name>
NUVENZEPINE

$$$$

     RDKit          2D

 36 38  0  0  0  0  0  0  0  0999 V2000
   -0.2208    0.9083    0.0000 C   0  0  0  0  0  0  0  0  0  0  0  0
   -0.9708   -0.3792    0.0000 C   0  0  0  0  0  0  0  0  0  0  0  0
    0.5250   -0.3792    0.0000 N   0  0  0  0  0  0  0  0  0  0  0  0
   -0.9708    0.4833    0.0000 C   0  0  0  0  0  0  0  0  0  0  0  0
   -0.2208   -0.8167    0.0000 C   0  0  0  0  0  0  0  0  0  0  0  0
    0.5250    0.4833    0.0000 C   0  0  0  0  0  0  0  0  0  0  0  0
   -1.7125    0.9083    0.0000 C   0  0  0  0  0  0  0  0  0  0  0  0
   -2.6083   -0.3667    0.0000 C   0  0  0  0  0  0  0  0  0  0  0  0
   -2.4625    0.4833    0.0000 C   0  0  0  0  0  0  0  0  0  0  0  0
   -1.5458   -1.0250    0.0000 C   0  0  0  0  0  0  0  0  0  0  0  0
   -0.2208    1.7708    0.0000 C   0  0  0  0  0  0  0  0  0  0  0  0
    1.2750   -0.8167    0.0000 C   0  0  0  0  0  0  0  0  0  0  0  0
    2.0167   -2.1042    0.0000 N   0  0  0  0  0  0  0  0  0  0  0  0
   -2.1333   -0.9000    0.0000 O   0  0  0  0  0  0  0  0  0  0  0  0
   -0.9708    2.2083    0.0000 O   0  0  0  0  0  0  0  0  0  0  0  0
    1.2750   -1.6792    0.0000 C   0  0  0  0  0  0  0  0  0  0  0  0
   -1.7500   -0.4417    0.0000 F   0  0  0  0  0  0  0  0  0  0  0  0
   -3.4708   -0.4417    0.0000 F   0  0  0  0  0  0  0  0  0  0  0  0
   -2.6083   -1.2292    0.0000 F   0  0  0  0  0  0  0  0  0  0  0  0
    3.5125   -2.9667    0.0000 O   0  0  0  0  0  0  0  0  0  0  0  0
   -0.2208   -1.6792    0.0000 C   0  0  0  0  0  0  0  0  0  0  0  0
    1.2750    0.9083    0.0000 C   0  0  0  0  0  0  0  0  0  0  0  0
   -1.2833   -1.8417    0.0000 O   0  0  0  0  0  0  0  0  0  0  0  0
    0.5250    2.2083    0.0000 O   0  0  0  0  0  0  0  0  0  0  0  0
   -1.7125    1.7708    0.0000 C   0  0  0  0  0  0  0  0  0  0  0  0
   -3.2083    0.9083    0.0000 C   0  0  0  0  0  0  0  0  0  0  0  0
    2.0167   -2.9667    0.0000 C   0  0  0  0  0  0  0  0  0  0  0  0
    2.7667   -1.6792    0.0000 C   0  0  0  0  0  0  0  0  0  0  0  0
    2.7667   -3.4000    0.0000 C   0  0  0  0  0  0  0  0  0  0  0  0
    3.5125   -2.1042    0.0000 C   0  0  0  0  0  0  0  0  0  0  0  0
    0.5250    3.0625    0.0000 C   0  0  0  0  0  0  0  0  0  0  0  0
   -1.8583   -2.4792    0.0000 C   0  0  0  0  0  0  0  0  0  0  0  0
   -2.4625    2.2083    0.0000 C   0  0  0  0  0  0  0  0  0  0  0  0
   -3.2083    1.7708    0.0000 C   0  0  0  0  0  0  0  0  0  0  0  0
    1.2750    3.4958    0.0000 C   0  0  0  0  0  0  0  0  0  0  0  0
   -1.5875   -3.3042    0.0000 C   0  0  0  0  0  0  0  0  0  0  0  0
  2  4  1  0
  3  6  1  0
  4  1  1  0
  5  3  1  0
  6  1  2  0
  7  4  1  0
  8  9  1  0
  9  7  1  0
 10  2  1  0
 11  1  1  0
 12  3  1  0
 13 16  1  0
 14 10  2  0
 15 11  2  0
 16 12  1  0
 17  8  1  0
 18  8  1  0
 19  8  1  0
 20 30  1  0
 21  5  1  0
 22  6  1  0
 23 10  1  0
 24 11  1  0
 25  7  2  0
 26  9  2  0
 27 13  1  0
 28 13  1  0
 29 27  1  0
 30 28  1  0
 31 24  1  0
 32 23  1  0
 33 25  1  0
 34 33  2  0
 35 31  1  0
 36 32  1  0
  2  5  2  0
 26 34  1  0
 29 20  1  0
M  END
> <chembl_id>
CHEMBL2107262

> <chembl_pref_name>
FLORDIPINE

$$$$

     RDKit          2D

 15 16  0  0  1  0  0  0  0  0999 V2000
   -0.4833    0.1458    0.0000 N   0  0  0  0  0  0  0  0  0  0  0  0
   -0.4833   -1.2917    0.0000 C   0  0  0  0  0  0  0  0  0  0  0  0
   -1.9125    0.1458    0.0000 C   0  0  0  0  0  0  0  0  0  0  0  0
    0.8917    0.5833    0.0000 C   0  0  0  0  0  0  0  0  0  0  0  0
   -1.9125   -1.2917    0.0000 C   0  0  0  0  0  0  0  0  0  0  0  0
    0.8917   -1.7292    0.0000 S   0  0  0  0  0  0  0  0  0  0  0  0
    1.7375   -0.6000    0.0000 C   0  0  0  0  0  0  0  0  0  0  0  0
    2.0792    1.4208    0.0000 C   0  0  0  0  0  0  0  0  0  0  0  0
   -2.9125    1.1750    0.0000 O   0  0  0  0  0  0  0  0  0  0  0  0
   -3.2875   -0.9417    0.0000 Br  0  0  0  0  0  0  0  0  0  0  0  0
    1.9542    2.8333    0.0000 O   0  0  0  0  0  0  0  0  0  0  0  0
    3.3667    0.8000    0.0000 O   0  0  0  0  0  0  0  0  0  0  0  0
    2.9542    0.1458    0.0000 C   0  0  0  0  0  0  0  0  0  0  0  0
    2.9000   -1.4500    0.0000 C   0  0  0  0  0  0  0  0  0  0  0  0
   -0.6367   -2.2799    0.0000 H   0  0  0  0  0  0  0  0  0  0  0  0
  2  1  1  0
  3  1  1  0
  4  1  1  0
  5  3  1  0
  6  2  1  0
  7  4  1  0
  4  8  1  1
  9  3  2  0
  5 10  1  6
 11  8  2  0
 12  8  1  0
 13  7  1  0
 14  7  1  0
  6  7  1  0
  2  5  1  0
  2 15  1  1
M  END
> <chembl_id>
CHEMBL73622

> <chembl_pref_name>
BROBACTAM

$$$$

     RDKit          2D

 27 31  0  0  0  0  0  0  0  0999 V2000
    1.5417   -7.5792    0.0000 C   0  0  0  0  0  0  0  0  0  0  0  0
    2.3125   -7.5792    0.0000 C   0  0  0  0  0  0  0  0  0  0  0  0
    1.3167   -6.7792    0.0000 N   0  0  0  0  0  0  0  0  0  0  0  0
    1.0917   -8.2042    0.0000 C   0  0  0  0  0  0  0  0  0  0  0  0
    0.2542   -8.2042    0.0000 N   0  0  0  0  0  0  0  0  0  0  0  0
    2.5792   -6.8167    0.0000 C   0  0  0  0  0  0  0  0  0  0  0  0
    1.9625   -6.3667    0.0000 C   0  0  0  0  0  0  0  0  0  0  0  0
    0.6667   -6.4667    0.0000 C   0  0  0  0  0  0  0  0  0  0  0  0
   -0.2083   -7.5542    0.0000 C   0  0  0  0  0  0  0  0  0  0  0  0
    0.0042   -6.7792    0.0000 C   0  0  0  0  0  0  0  0  0  0  0  0
    2.8167   -8.2167    0.0000 C   0  0  0  0  0  0  0  0  0  0  0  0
   -0.1208   -8.8875    0.0000 C   0  0  0  0  0  0  0  0  0  0  0  0
    1.4542   -8.8875    0.0000 C   0  0  0  0  0  0  0  0  0  0  0  0
    1.0542   -9.5625    0.0000 N   0  0  0  0  0  0  0  0  0  0  0  0
    2.6167   -8.8917    0.0000 O   0  0  0  0  0  0  0  0  0  0  0  0
    0.2875   -9.5625    0.0000 C   0  0  0  0  0  0  0  0  0  0  0  0
    3.5375   -8.0417    0.0000 O   0  0  0  0  0  0  0  0  0  0  0  0
    3.3042   -6.5000    0.0000 C   0  0  0  0  0  0  0  0  0  0  0  0
    2.0250   -5.5750    0.0000 C   0  0  0  0  0  0  0  0  0  0  0  0
   -0.5625   -6.2292    0.0000 C   0  0  0  0  0  0  0  0  0  0  0  0
   -0.9583   -7.7542    0.0000 C   0  0  0  0  0  0  0  0  0  0  0  0
    1.4542  -10.2500    0.0000 C   0  0  0  0  0  0  0  0  0  0  0  0
    3.7917   -7.3667    0.0000 C   0  0  0  0  0  0  0  0  0  0  0  0
    3.3917   -5.7125    0.0000 C   0  0  0  0  0  0  0  0  0  0  0  0
    2.7417   -5.2417    0.0000 C   0  0  0  0  0  0  0  0  0  0  0  0
   -1.3333   -6.4500    0.0000 C   0  0  0  0  0  0  0  0  0  0  0  0
   -1.5333   -7.2000    0.0000 C   0  0  0  0  0  0  0  0  0  0  0  0
  2  1  2  0
  3  1  1  0
  4  1  1  0
  5  4  1  0
  6  2  1  0
  7  3  1  0
  8  3  1  0
  9  5  1  0
 10  8  1  0
 11  2  1  0
 12  5  1  0
 13  4  1  0
 14 13  1  0
 15 11  2  0
 16 14  1  0
 17 11  1  0
 18  6  1  0
 19  7  1  0
 20 10  2  0
 21  9  2  0
 22 14  1  0
 23 17  1  0
 24 18  2  0
 25 19  2  0
 26 20  1  0
 27 21  1  0
  6  7  2  0
  9 10  1  0
 16 12  1  0
 24 25  1  0
 27 26  2  0
M  END
> <chembl_id>
CHEMBL2110702

> <chembl_pref_name>
SERAZAPINE

$$$$

     RDKit          2D

 22 25  0  0  0  0  0  0  0  0999 V2000
   -0.3958    1.1500    0.0000 N   0  0  0  0  0  0  0  0  0  0  0  0
   -0.8208    0.2333    0.0000 C   0  0  0  0  0  0  0  0  0  0  0  0
   -0.8208    2.0583    0.0000 C   0  0  0  0  0  0  0  0  0  0  0  0
   -1.8083    0.0083    0.0000 N   0  0  0  0  0  0  0  0  0  0  0  0
   -0.0958    2.7500    0.0000 N   0  0  0  0  0  0  0  0  0  0  0  0
    0.6167    1.2833    0.0000 N   0  0  0  0  0  0  0  0  0  0  0  0
   -0.2000   -0.5542    0.0000 N   0  0  0  0  0  0  0  0  0  0  0  0
    0.8000    2.3000    0.0000 C   0  0  0  0  0  0  0  0  0  0  0  0
   -2.5833    0.6458    0.0000 C   0  0  0  0  0  0  0  0  0  0  0  0
   -1.8083    2.2833    0.0000 C   0  0  0  0  0  0  0  0  0  0  0  0
   -2.5833    1.6625    0.0000 C   0  0  0  0  0  0  0  0  0  0  0  0
    1.0750   -2.1167    0.0000 N   0  0  0  0  0  0  0  0  0  0  0  0
   -0.5833   -1.4917    0.0000 C   0  0  0  0  0  0  0  0  0  0  0  0
    0.7875   -0.3792    0.0000 C   0  0  0  0  0  0  0  0  0  0  0  0
    0.0292   -2.2792    0.0000 C   0  0  0  0  0  0  0  0  0  0  0  0
    1.4292   -1.1750    0.0000 C   0  0  0  0  0  0  0  0  0  0  0  0
    1.6875    2.7708    0.0000 C   0  0  0  0  0  0  0  0  0  0  0  0
    1.7375   -2.8625    0.0000 C   0  0  0  0  0  0  0  0  0  0  0  0
   -3.4625    0.1250    0.0000 C   0  0  0  0  0  0  0  0  0  0  0  0
   -3.4625    2.1583    0.0000 C   0  0  0  0  0  0  0  0  0  0  0  0
   -4.3458    0.6458    0.0000 C   0  0  0  0  0  0  0  0  0  0  0  0
   -4.3458    1.6625    0.0000 C   0  0  0  0  0  0  0  0  0  0  0  0
  2  1  1  0
  3  1  1  0
  4  2  2  0
  5  3  2  0
  6  1  1  0
  7  2  1  0
  8  6  2  0
  9  4  1  0
 10  3  1  0
 11 10  1  0
 12 16  1  0
 13  7  1  0
 14  7  1  0
 15 13  1  0
 16 14  1  0
 17  8  1  0
 18 12  1  0
 19  9  1  0
 20 11  1  0
 21 19  2  0
 22 20  2  0
  5  8  1  0
  9 11  2  0
 15 12  1  0
 21 22  1  0
M  END
> <chembl_id>
CHEMBL2110765

> <chembl_pref_name>
BATELAPINE

$$$$

     RDKit          2D

 26 27  0  0  0  0  0  0  0  0999 V2000
    0.2292    0.7833    0.0000 C   0  0  0  0  0  0  0  0  0  0  0  0
   -0.5500   -0.5792    0.0000 C   0  0  0  0  0  0  0  0  0  0  0  0
    0.2292   -0.1292    0.0000 C   0  0  0  0  0  0  0  0  0  0  0  0
   -0.5500    1.2333    0.0000 C   0  0  0  0  0  0  0  0  0  0  0  0
   -1.3333   -0.1292    0.0000 C   0  0  0  0  0  0  0  0  0  0  0  0
   -1.3333    0.7833    0.0000 N   0  0  0  0  0  0  0  0  0  0  0  0
    1.0167   -0.5792    0.0000 C   0  0  0  0  0  0  0  0  0  0  0  0
   -0.5500   -1.4792    0.0000 C   0  0  0  0  0  0  0  0  0  0  0  0
    1.0167    1.2333    0.0000 C   0  0  0  0  0  0  0  0  0  0  0  0
    1.0167   -1.4792    0.0000 C   0  0  0  0  0  0  0  0  0  0  0  0
    1.8000   -1.9375    0.0000 N   0  0  0  0  0  0  0  0  0  0  0  0
    0.0000   -1.8000    0.0000 O   0  0  0  0  0  0  0  0  0  0  0  0
    1.8000    0.7833    0.0000 O   0  0  0  0  0  0  0  0  0  0  0  0
    0.3250   -2.0667    0.0000 S   0  0  0  0  0  0  0  0  0  0  0  0
   -1.3333   -1.9375    0.0000 O   0  0  0  0  0  0  0  0  0  0  0  0
    1.0167    2.1333    0.0000 O   0  0  0  0  0  0  0  0  0  0  0  0
   -0.5500    2.1333    0.0000 C   0  0  0  0  0  0  0  0  0  0  0  0
   -2.1208   -0.5792    0.0000 C   0  0  0  0  0  0  0  0  0  0  0  0
    1.8000   -0.1292    0.0000 C   0  0  0  0  0  0  0  0  0  0  0  0
    2.5792   -1.4792    0.0000 C   0  0  0  0  0  0  0  0  0  0  0  0
    0.4792   -2.9542    0.0000 C   0  0  0  0  0  0  0  0  0  0  0  0
    1.8000    2.5833    0.0000 C   0  0  0  0  0  0  0  0  0  0  0  0
   -1.3333   -2.8375    0.0000 C   0  0  0  0  0  0  0  0  0  0  0  0
    2.5792   -0.5792    0.0000 C   0  0  0  0  0  0  0  0  0  0  0  0
    1.8000    3.4958    0.0000 C   0  0  0  0  0  0  0  0  0  0  0  0
   -2.1208   -3.2917    0.0000 C   0  0  0  0  0  0  0  0  0  0  0  0
  2  3  1  0
  3  1  1  0
  4  1  2  0
  5  6  1  0
  6  4  1  0
  7  3  1  0
  8  2  1  0
  9  1  1  0
 10  7  2  0
 11 10  1  0
 12  8  2  0
 13  9  2  0
 14 10  1  0
 15  8  1  0
 16  9  1  0
 17  4  1  0
 18  5  1  0
 19  7  1  0
 20 24  1  0
 21 14  1  0
 22 16  1  0
 23 15  1  0
 24 19  2  0
 25 22  1  0
 26 23  1  0
  2  5  2  0
 11 20  2  0
M  END
> <chembl_id>
CHEMBL2106863

> <chembl_pref_name>
MESUDIPINE

$$$$

     RDKit          2D

 30 31  0  0  0  0  0  0  0  0999 V2000
   -2.2597   -2.2792    0.0000 Br  0  0  0  0  0  0  0  0  0  0  0  0
   -5.6410    0.9941    0.0000 C   0  0  0  0  0  0  0  0  0  0  0  0
   -6.4660    0.9941    0.0000 C   0  0  0  0  0  0  0  0  0  0  0  0
   -6.8785    0.2797    0.0000 C   0  0  0  0  0  0  0  0  0  0  0  0
   -6.4660   -0.4347    0.0000 C   0  0  0  0  0  0  0  0  0  0  0  0
   -5.6410   -0.4347    0.0000 C   0  0  0  0  0  0  0  0  0  0  0  0
   -5.2285    0.2797    0.0000 C   0  0  0  0  0  0  0  0  0  0  0  0
   -4.4035    1.7086    0.0000 C   0  0  0  0  0  0  0  0  0  0  0  0
   -5.2285    1.7086    0.0000 C   0  0  0  0  0  0  0  0  0  0  0  0
   -4.4035    0.2797    0.0000 C   0  0  0  0  0  0  0  0  0  0  0  0
   -3.9910    0.9942    0.0000 C   0  0  0  0  0  0  0  0  0  0  0  0
   -3.1660    0.9942    0.0000 C   0  0  0  0  0  0  0  0  0  0  0  0
   -3.9910   -0.4347    0.0000 C   0  0  0  0  0  0  0  0  0  0  0  0
   -3.1660   -0.4347    0.0000 C   0  0  0  0  0  0  0  0  0  0  0  0
   -2.7535    0.2797    0.0000 C   0  0  0  0  0  0  0  0  0  0  0  0
   -6.9510   -1.1022    0.0000 O   0  0  0  0  0  0  0  0  0  0  0  0
   -6.5016   -1.7941    0.0000 C   0  0  0  0  0  0  0  0  0  0  0  0
   -6.9510   -2.4860    0.0000 H   0  0  0  0  0  0  0  0  0  0  0  0
   -6.2881   -2.5910    0.0000 H   0  0  0  0  0  0  0  0  0  0  0  0
   -5.7480   -2.1296    0.0000 H   0  0  0  0  0  0  0  0  0  0  0  0
   -4.8529    0.9716    0.0000 C   0  0  0  0  0  0  0  0  0  0  0  0
   -4.2745    2.5235    0.0000 N   0  0  0  0  0  0  0  0  0  0  0  0
   -5.0447    2.2278    0.0000 C   0  0  0  0  0  0  0  0  0  0  0  0
   -3.5417    1.6861    0.0000 H   0  0  0  0  0  0  0  0  0  0  0  0
   -3.7553    3.1646    0.0000 C   0  0  0  0  0  0  0  0  0  0  0  0
   -3.9688    3.9615    0.0000 H   0  0  0  0  0  0  0  0  0  0  0  0
   -3.4596    3.9348    0.0000 H   0  0  0  0  0  0  0  0  0  0  0  0
   -3.0016    3.5002    0.0000 H   0  0  0  0  0  0  0  0  0  0  0  0
   -3.7361    2.1936    0.0000 H   0  0  0  0  0  0  0  0  0  0  0  0
   -2.1623   -1.6948    0.0000 O   0  0  0  0  0  0  0  0  0  0  0  0
  2  3  2  0
  3  4  1  0
  4  5  2  0
  5  6  1  0
  6  7  2  0
  2  7  1  0
 10 11  1  0
  8 11  1  0
  9  2  1  0
  7 10  1  0
 13 14  1  0
 14 15  1  0
 12 15  1  0
 10 13  1  0
 12 11  1  0
  5 16  1  0
 16 17  1  0
 17 18  1  0
 17 19  1  0
 17 20  1  0
 10 21  1  6
  8 22  1  0
 22 23  1  0
 23 21  1  0
 11 24  1  6
 22 25  1  0
 25 26  1  0
 25 27  1  0
 25 28  1  0
  8  9  1  0
  8 29  1  1
M  ISO  6  18   2  19   2  20   2  26   2  27   2  28   2
M  END
> <chembl_id>
CHEMBL3989946

> <chembl_pref_name>
DEUDEXTROMETHORPHAN HYDROBROMIDE

$$$$

     RDKit          2D

 24 26  0  0  0  0  0  0  0  0999 V2000
   -3.7688    0.2062    0.0000 C   0  0  0  0  0  0  0  0  0  0  0  0
   -3.7701   -0.6212    0.0000 C   0  0  0  0  0  0  0  0  0  0  0  0
   -3.0571   -1.0342    0.0000 C   0  0  0  0  0  0  0  0  0  0  0  0
   -3.0591    0.6190    0.0000 C   0  0  0  0  0  0  0  0  0  0  0  0
   -2.3411    0.2103    0.0000 C   0  0  0  0  0  0  0  0  0  0  0  0
   -2.3405   -0.6212    0.0000 C   0  0  0  0  0  0  0  0  0  0  0  0
   -1.5495   -0.8777    0.0000 C   0  0  0  0  0  0  0  0  0  0  0  0
   -1.0611   -0.2047    0.0000 C   0  0  0  0  0  0  0  0  0  0  0  0
   -1.5504    0.4677    0.0000 C   0  0  0  0  0  0  0  0  0  0  0  0
   -0.2362   -0.2041    0.0000 C   0  0  0  0  0  0  0  0  0  0  0  0
   -1.2959    1.2524    0.0000 C   0  0  0  0  0  0  0  0  0  0  0  0
   -0.4891    1.4245    0.0000 C   0  0  0  0  0  0  0  0  0  0  0  0
   -0.2347    2.2092    0.0000 O   0  0  0  0  0  0  0  0  0  0  0  0
    0.0632    0.8117    0.0000 O   0  0  0  0  0  0  0  0  0  0  0  0
   -4.4836    0.6182    0.0000 F   0  0  0  0  0  0  0  0  0  0  0  0
   -1.2941   -1.6622    0.0000 C   0  0  0  0  0  0  0  0  0  0  0  0
   -1.8457   -2.2755    0.0000 C   0  0  0  0  0  0  0  0  0  0  0  0
   -2.6508   -2.1010    0.0000 C   0  0  0  0  0  0  0  0  0  0  0  0
   -3.2022   -2.7135    0.0000 C   0  0  0  0  0  0  0  0  0  0  0  0
   -2.9470   -3.4989    0.0000 C   0  0  0  0  0  0  0  0  0  0  0  0
   -2.1353   -3.6683    0.0000 C   0  0  0  0  0  0  0  0  0  0  0  0
   -1.5874   -3.0543    0.0000 C   0  0  0  0  0  0  0  0  0  0  0  0
   -3.4978   -4.1131    0.0000 S   0  0  0  0  0  0  0  0  0  0  0  0
   -4.3050   -3.9430    0.0000 C   0  0  0  0  0  0  0  0  0  0  0  0
 11 12  1  0
  2  3  1  0
 12 13  2  0
  3  6  2  0
 12 14  1  0
  1  2  2  0
  1 15  1  0
  5  4  2  0
  7 16  2  0
  6  7  1  0
 16 17  1  0
  7  8  1  0
 17 18  2  0
  8  9  2  0
 18 19  1  0
  9  5  1  0
 19 20  2  0
  4  1  1  0
 20 21  1  0
  8 10  1  0
 21 22  2  0
 22 17  1  0
  5  6  1  0
 20 23  1  0
  9 11  1  0
 23 24  1  0
M  END
> <chembl_id>
CHEMBL18797

> <chembl_pref_name>
SULINDAC SULFIDE

$$$$

     RDKit          2D

 32 34  0  0  0  0  0  0  0  0999 V2000
   18.4573   -5.9643    0.0000 S   0  0  0  0  0  0  0  0  0  0  0  0
   19.0102   -5.3520    0.0000 C   0  0  0  0  0  0  0  0  0  0  0  0
   18.5986   -4.6370    0.0000 C   0  0  0  0  0  0  0  0  0  0  0  0
   17.7914   -4.8074    0.0000 C   0  0  0  0  0  0  0  0  0  0  0  0
   17.7041   -5.6278    0.0000 C   0  0  0  0  0  0  0  0  0  0  0  0
   16.9890   -6.0393    0.0000 C   0  0  0  0  0  0  0  0  0  0  0  0
   16.2752   -5.6259    0.0000 C   0  0  0  0  0  0  0  0  0  0  0  0
   15.5601   -6.0375    0.0000 C   0  0  0  0  0  0  0  0  0  0  0  0
   16.2752   -4.8009    0.0000 C   0  0  0  0  0  0  0  0  0  0  0  0
   18.9351   -3.8838    0.0000 C   0  0  0  0  0  0  0  0  0  0  0  0
   18.4510   -3.2157    0.0000 C   0  0  0  0  0  0  0  0  0  0  0  0
   18.7876   -2.4624    0.0000 C   0  0  0  0  0  0  0  0  0  0  0  0
   19.6082   -2.3773    0.0000 C   0  0  0  0  0  0  0  0  0  0  0  0
   20.0922   -3.0453    0.0000 C   0  0  0  0  0  0  0  0  0  0  0  0
   19.7558   -3.7986    0.0000 C   0  0  0  0  0  0  0  0  0  0  0  0
   19.9448   -1.6241    0.0000 C   0  0  0  0  0  0  0  0  0  0  0  0
   20.7653   -1.5389    0.0000 N   0  0  0  0  0  0  0  0  0  0  0  0
   21.3166   -2.1527    0.0000 C   0  0  0  0  0  0  0  0  0  0  0  0
   22.0707   -1.8182    0.0000 C   0  0  0  0  0  0  0  0  0  0  0  0
   21.9856   -0.9976    0.0000 N   0  0  0  0  0  0  0  0  0  0  0  0
   21.1787   -0.8250    0.0000 C   0  0  0  0  0  0  0  0  0  0  0  0
   19.8305   -5.4393    0.0000 S   0  0  0  0  0  0  0  0  0  0  0  0
   20.6509   -5.5267    0.0000 N   0  0  0  0  0  0  0  0  0  0  0  0
   20.9854   -6.2807    0.0000 C   0  0  0  0  0  0  0  0  0  0  0  0
   20.4996   -6.9475    0.0000 O   0  0  0  0  0  0  0  0  0  0  0  0
   20.8342   -7.7016    0.0000 C   0  0  0  0  0  0  0  0  0  0  0  0
   21.6546   -7.7889    0.0000 C   0  0  0  0  0  0  0  0  0  0  0  0
   21.9891   -8.5431    0.0000 C   0  0  0  0  0  0  0  0  0  0  0  0
   21.5034   -9.2099    0.0000 C   0  0  0  0  0  0  0  0  0  0  0  0
   21.8058   -6.3681    0.0000 O   0  0  0  0  0  0  0  0  0  0  0  0
   19.7432   -6.2596    0.0000 O   0  0  0  0  0  0  0  0  0  0  0  0
   19.9178   -4.6189    0.0000 O   0  0  0  0  0  0  0  0  0  0  0  0
  1  2  1  0
  2  3  2  0
  3  4  1  0
  4  5  2  0
  5  1  1  0
  5  6  1  0
  6  7  1  0
  7  8  1  0
  7  9  1  0
  3 10  1  0
 11 10  2  0
 12 11  1  0
 13 12  2  0
 14 13  1  0
 15 14  2  0
 10 15  1  0
 13 16  1  0
 16 17  1  0
 18 17  1  0
 18 19  2  0
 19 20  1  0
 20 21  2  0
 21 17  1  0
  2 22  1  0
 22 23  1  0
 23 24  1  0
 24 25  1  0
 25 26  1  0
 26 27  1  0
 27 28  1  0
 28 29  1  0
 24 30  2  0
 22 31  2  0
 22 32  2  0
M  END
> <chembl_id>
CHEMBL189568

> <chembl_pref_name>
BULOXIBUTID

$$$$

     RDKit          2D

 38 42  0  0  0  0  0  0  0  0999 V2000
   -0.5458    0.3833    0.0000 C   0  0  0  0  0  0  0  0  0  0  0  0
   -1.2208   -0.1042    0.0000 N   0  0  0  0  0  0  0  0  0  0  0  0
   -0.8000    1.1625    0.0000 C   0  0  0  0  0  0  0  0  0  0  0  0
    2.3667   -4.6375    0.0000 S   0  0  0  0  0  0  0  0  0  0  0  0
    2.3625   -2.1625    0.0000 C   0  0  0  0  0  0  0  0  0  0  0  0
   -1.6250    1.1625    0.0000 N   0  0  0  0  0  0  0  0  0  0  0  0
    2.3542   -1.3292    0.0000 C   0  0  0  0  0  0  0  0  0  0  0  0
   -1.8833    0.3833    0.0000 C   0  0  0  0  0  0  0  0  0  0  0  0
    1.6417   -2.5750    0.0000 O   0  0  0  0  0  0  0  0  0  0  0  0
    0.9250   -1.3417    0.0000 C   0  0  0  0  0  0  0  0  0  0  0  0
    2.3625   -5.4625    0.0000 C   0  0  0  0  0  0  0  0  0  0  0  0
    3.0750   -2.5667    0.0000 C   0  0  0  0  0  0  0  0  0  0  0  0
    2.3625   -3.8125    0.0000 N   0  0  0  0  0  0  0  0  0  0  0  0
    0.9292   -2.1667    0.0000 C   0  0  0  0  0  0  0  0  0  0  0  0
   -0.3208    1.8333    0.0000 C   0  0  0  0  0  0  0  0  0  0  0  0
    0.2375    0.1208    0.0000 C   0  0  0  0  0  0  0  0  0  0  0  0
    3.0750   -3.3917    0.0000 C   0  0  0  0  0  0  0  0  0  0  0  0
    0.4375    2.1625    0.0000 C   0  0  0  0  0  0  0  0  0  0  0  0
   -0.2333    2.6500    0.0000 C   0  0  0  0  0  0  0  0  0  0  0  0
   -1.2208   -0.9292    0.0000 C   0  0  0  0  0  0  0  0  0  0  0  0
    3.0792   -5.0500    0.0000 O   0  0  0  0  0  0  0  0  0  0  0  0
    1.6542   -5.0500    0.0000 O   0  0  0  0  0  0  0  0  0  0  0  0
    0.2042   -0.9292    0.0000 C   0  0  0  0  0  0  0  0  0  0  0  0
   -0.5083   -1.3417    0.0000 C   0  0  0  0  0  0  0  0  0  0  0  0
    0.6500   -0.4375    0.0000 O   0  0  0  0  0  0  0  0  0  0  0  0
    2.9375   -0.7500    0.0000 Br  0  0  0  0  0  0  0  0  0  0  0  0
    0.2042   -2.5792    0.0000 C   0  0  0  0  0  0  0  0  0  0  0  0
    2.3542   -6.2042    0.0000 F   0  0  0  0  0  0  0  0  0  0  0  0
    1.6917   -6.0000    0.0000 F   0  0  0  0  0  0  0  0  0  0  0  0
    3.0250   -6.0042    0.0000 F   0  0  0  0  0  0  0  0  0  0  0  0
    0.8542    0.6708    0.0000 N   0  0  0  0  0  0  0  0  0  0  0  0
   -0.5083   -2.1667    0.0000 C   0  0  0  0  0  0  0  0  0  0  0  0
   -2.6708    0.1250    0.0000 C   0  0  0  0  0  0  0  0  0  0  0  0
    3.7792   -2.1542    0.0000 C   0  0  0  0  0  0  0  0  0  0  0  0
    3.7917   -3.8042    0.0000 C   0  0  0  0  0  0  0  0  0  0  0  0
   -3.2833    0.6750    0.0000 C   0  0  0  0  0  0  0  0  0  0  0  0
    4.5000   -2.5625    0.0000 C   0  0  0  0  0  0  0  0  0  0  0  0
    4.5042   -3.3917    0.0000 C   0  0  0  0  0  0  0  0  0  0  0  0
  2  1  1  0
  3  1  2  0
  4 13  1  0
  5  7  2  0
  6  3  1  0
  7 10  1  0
  8  2  1  0
  9 14  1  0
 10 23  2  0
 11  4  1  0
 12  5  1  0
 13 17  1  0
 14 27  2  0
 15  3  1  0
 16  1  1  0
 17 12  2  0
 18 15  1  0
 19 15  1  0
 20  2  1  0
 21  4  2  0
 22  4  2  0
 23 24  1  0
 24 20  1  0
 25 16  2  0
 26  7  1  0
 27 32  1  0
 28 11  1  0
 29 11  1  0
 30 11  1  0
 31 16  1  0
 32 24  2  0
 33  8  1  0
 34 12  1  0
 35 17  1  0
 36 33  1  0
 37 34  2  0
 38 37  1  0
  6  8  2  0
 18 19  1  0
 10 14  1  0
  9  5  1  0
 35 38  2  0
M  END
> <chembl_id>
CHEMBL305544

> <chembl_pref_name>
SAPRISARTAN

$$$$

     RDKit          2D

 25 27  0  0  0  0  0  0  0  0999 V2000
   13.7792   -9.2750    0.0000 N   0  0  0  0  0  0  0  0  0  0  0  0
   14.1125  -10.2667    0.0000 S   0  0  0  0  0  0  0  0  0  0  0  0
   14.3875   -8.4292    0.0000 C   0  0  0  0  0  0  0  0  0  0  0  0
   12.8042   -8.9542    0.0000 C   0  0  0  0  0  0  0  0  0  0  0  0
   13.7792   -7.5917    0.0000 N   0  0  0  0  0  0  0  0  0  0  0  0
   12.8042   -7.9125    0.0000 C   0  0  0  0  0  0  0  0  0  0  0  0
   11.8917   -9.4792    0.0000 C   0  0  0  0  0  0  0  0  0  0  0  0
   11.0000   -8.9542    0.0000 C   0  0  0  0  0  0  0  0  0  0  0  0
   10.1042   -9.4792    0.0000 C   0  0  0  0  0  0  0  0  0  0  0  0
   15.1000   -9.9375    0.0000 O   0  0  0  0  0  0  0  0  0  0  0  0
   13.1167  -10.5917    0.0000 O   0  0  0  0  0  0  0  0  0  0  0  0
   14.4375  -11.2542    0.0000 C   0  0  0  0  0  0  0  0  0  0  0  0
   10.1125  -10.5167    0.0000 N   0  0  0  0  0  0  0  0  0  0  0  0
   15.4292   -8.4417    0.0000 N   0  0  0  0  0  0  0  0  0  0  0  0
   11.8917   -7.3917    0.0000 C   0  0  0  0  0  0  0  0  0  0  0  0
   11.0000   -7.9125    0.0000 C   0  0  0  0  0  0  0  0  0  0  0  0
    9.2000   -8.9542    0.0000 C   0  0  0  0  0  0  0  0  0  0  0  0
    9.2000  -11.0375    0.0000 O   0  0  0  0  0  0  0  0  0  0  0  0
    9.2000   -7.9125    0.0000 C   0  0  0  0  0  0  0  0  0  0  0  0
    8.2917   -9.4792    0.0000 C   0  0  0  0  0  0  0  0  0  0  0  0
   15.4542  -11.4667    0.0000 C   0  0  0  0  0  0  0  0  0  0  0  0
   13.7500  -12.0167    0.0000 C   0  0  0  0  0  0  0  0  0  0  0  0
    7.3917   -8.9542    0.0000 C   0  0  0  0  0  0  0  0  0  0  0  0
    8.2917   -7.3917    0.0000 C   0  0  0  0  0  0  0  0  0  0  0  0
    7.3792   -7.9125    0.0000 C   0  0  0  0  0  0  0  0  0  0  0  0
  2  1  1  0
  3  1  1  0
  4  1  1  0
  5  3  2  0
  6  4  1  0
  7  4  2  0
  8  7  1  0
  9  8  1  0
 10  2  2  0
 11  2  2  0
 12  2  1  0
 13  9  2  0
 14  3  1  0
 15  6  2  0
 16  8  2  0
 17  9  1  0
 18 13  1  0
 19 17  2  0
 20 17  1  0
 21 12  1  0
 22 12  1  0
 23 20  2  0
 24 19  1  0
 25 23  1  0
  5  6  1  0
 15 16  1  0
 24 25  2  0
M  END
> <chembl_id>
CHEMBL283403

> <chembl_pref_name>
ENVIROXIME

$$$$

     RDKit          2D

 31 33  0  0  1  0  0  0  0  0999 V2000
    3.5292   -3.6833    0.0000 N   0  0  0  0  0  0  0  0  0  0  0  0
    3.0625   -4.2125    0.0000 C   0  0  0  0  0  0  0  0  0  0  0  0
    4.2333   -3.7542    0.0000 C   0  0  0  0  0  0  0  0  0  0  0  0
    2.3667   -4.0667    0.0000 C   0  0  0  0  0  0  0  0  0  0  0  0
    3.3792   -2.9917    0.0000 C   0  0  0  0  0  0  0  0  0  0  0  0
    1.8958   -4.5958    0.0000 P   0  0  0  0  0  0  0  0  0  0  0  0
    4.5208   -3.1042    0.0000 C   0  0  0  0  0  0  0  0  0  0  0  0
    3.9917   -2.6292    0.0000 C   0  0  0  0  0  0  0  0  0  0  0  0
    4.5917   -4.3667    0.0000 C   0  0  0  0  0  0  0  0  0  0  0  0
    3.2833   -4.8833    0.0000 O   0  0  0  0  0  0  0  0  0  0  0  0
    1.7083   -3.9083    0.0000 O   0  0  0  0  0  0  0  0  0  0  0  0
    4.2417   -4.9792    0.0000 O   0  0  0  0  0  0  0  0  0  0  0  0
    3.4833   -2.1250    0.0000 C   0  0  0  0  0  0  0  0  0  0  0  0
    2.1167   -5.2708    0.0000 O   0  0  0  0  0  0  0  0  0  0  0  0
    5.3000   -4.3583    0.0000 O   0  0  0  0  0  0  0  0  0  0  0  0
    1.2000   -4.4542    0.0000 C   0  0  0  0  0  0  0  0  0  0  0  0
   -1.1292   -5.2250    0.0000 C   0  0  0  0  0  0  0  0  0  0  0  0
    3.6750   -1.4333    0.0000 C   0  0  0  0  0  0  0  0  0  0  0  0
    2.7958   -2.3083    0.0000 C   0  0  0  0  0  0  0  0  0  0  0  0
   -0.4333   -5.3708    0.0000 C   0  0  0  0  0  0  0  0  0  0  0  0
   -1.5958   -5.7583    0.0000 C   0  0  0  0  0  0  0  0  0  0  0  0
   -1.3458   -4.5542    0.0000 C   0  0  0  0  0  0  0  0  0  0  0  0
    0.7292   -4.9833    0.0000 C   0  0  0  0  0  0  0  0  0  0  0  0
    0.0375   -4.8417    0.0000 C   0  0  0  0  0  0  0  0  0  0  0  0
    2.2917   -1.8042    0.0000 C   0  0  0  0  0  0  0  0  0  0  0  0
    3.1708   -0.9250    0.0000 C   0  0  0  0  0  0  0  0  0  0  0  0
   -2.0417   -4.4125    0.0000 C   0  0  0  0  0  0  0  0  0  0  0  0
   -2.2833   -5.6125    0.0000 C   0  0  0  0  0  0  0  0  0  0  0  0
   -2.5125   -4.9417    0.0000 C   0  0  0  0  0  0  0  0  0  0  0  0
    2.4792   -1.1083    0.0000 C   0  0  0  0  0  0  0  0  0  0  0  0
    4.6000   -2.2708    0.0000 H   0  0  0  0  0  0  0  0  0  0  0  0
  2  1  1  0
  3  1  1  0
  4  2  1  0
  5  1  1  0
  6  4  1  0
  7  3  1  0
  8  5  1  0
  3  9  1  1
 10  2  2  0
 11  6  2  0
 12  9  2  0
  8 13  1  6
 14  6  1  0
 15  9  1  0
 16  6  1  0
 17 20  1  0
 18 13  1  0
 19 13  1  0
 20 24  1  0
 21 17  1  0
 22 17  2  0
 23 16  1  0
 24 23  1  0
 25 19  1  0
 26 18  1  0
 27 22  1  0
 28 21  2  0
 29 28  1  0
 30 25  1  0
  8 31  1  1
  8  7  1  0
 30 26  1  0
 29 27  2  0
M  END
> <chembl_id>
CHEMBL581

> <chembl_pref_name>
FOSINOPRILAT

$$$$

     RDKit          2D

 18 18  0  0  0  0  0  0  0  0999 V2000
   -0.2083    0.5708    0.0000 C   0  0  0  0  0  0  0  0  0  0  0  0
    0.5000   -0.6500    0.0000 C   0  0  0  0  0  0  0  0  0  0  0  0
    0.4667    1.7958    0.0000 C   0  0  0  0  0  0  0  0  0  0  0  0
   -1.5958    0.5708    0.0000 C   0  0  0  0  0  0  0  0  0  0  0  0
   -2.4083   -0.5500    0.0000 S   0  0  0  0  0  0  0  0  0  0  0  0
   -2.4208    1.6958    0.0000 S   0  0  0  0  0  0  0  0  0  0  0  0
   -0.2875   -1.7542    0.0000 O   0  0  0  0  0  0  0  0  0  0  0  0
    1.8042    1.6583    0.0000 O   0  0  0  0  0  0  0  0  0  0  0  0
    1.9375   -0.6542    0.0000 O   0  0  0  0  0  0  0  0  0  0  0  0
   -0.2333    3.0625    0.0000 O   0  0  0  0  0  0  0  0  0  0  0  0
   -3.7458   -0.1125    0.0000 C   0  0  0  0  0  0  0  0  0  0  0  0
   -3.7458    1.2625    0.0000 C   0  0  0  0  0  0  0  0  0  0  0  0
    0.2792   -3.0167    0.0000 C   0  0  0  0  0  0  0  0  0  0  0  0
    2.6167    2.7833    0.0000 C   0  0  0  0  0  0  0  0  0  0  0  0
    1.5542   -2.4417    0.0000 C   0  0  0  0  0  0  0  0  0  0  0  0
   -0.9750   -3.5875    0.0000 C   0  0  0  0  0  0  0  0  0  0  0  0
    1.5042    3.5958    0.0000 C   0  0  0  0  0  0  0  0  0  0  0  0
    3.7375    1.9708    0.0000 C   0  0  0  0  0  0  0  0  0  0  0  0
  2  1  1  0
  3  1  1  0
  4  1  2  0
  5  4  1  0
  6  4  1  0
  7  2  1  0
  8  3  1  0
  9  2  2  0
 10  3  2  0
 11  5  1  0
 12  6  1  0
 13  7  1  0
 14  8  1  0
 15 13  1  0
 16 13  1  0
 17 14  1  0
 18 14  1  0
 11 12  2  0
M  END
> <chembl_id>
CHEMBL1697754

> <chembl_pref_name>
MALOTILATE

$$$$

     RDKit          2D

 22 25  0  0  0  0  0  0  0  0999 V2000
   -0.4916   -3.8582    0.0000 O   0  0  0  0  0  0  0  0  0  0  0  0
    0.3114   -2.9665    0.0000 C   0  0  0  0  0  0  0  0  0  0  0  0
    1.8032   -3.1233    0.0000 N   0  0  0  0  0  0  0  0  0  0  0  0
    2.5551   -4.4192    0.0000 C   0  0  0  0  0  0  0  0  0  0  0  0
    4.0559   -4.4171    0.0000 C   0  0  0  0  0  0  0  0  0  0  0  0
    4.8090   -5.7153    0.0000 N   0  0  0  0  0  0  0  0  0  0  0  0
    4.1880   -7.0667    0.0000 Se  0  0  0  0  0  2  0  0  0  0  0  0
    5.3023   -8.0696    0.0000 C   0  0  0  0  0  0  0  0  0  0  0  0
    5.3024   -9.5696    0.0000 C   0  0  0  0  0  0  0  0  0  0  0  0
    6.6014  -10.3196    0.0000 C   0  0  0  0  0  0  0  0  0  0  0  0
    7.9004   -9.5695    0.0000 C   0  0  0  0  0  0  0  0  0  0  0  0
    7.9004   -8.0695    0.0000 C   0  0  0  0  0  0  0  0  0  0  0  0
    6.6013   -7.3196    0.0000 C   0  0  0  0  0  0  0  0  0  0  0  0
    6.2898   -5.8531    0.0000 C   0  0  0  0  0  0  0  0  0  0  0  0
    7.0875   -4.9566    0.0000 O   0  0  0  0  0  0  0  0  0  0  0  0
    2.4133   -1.7530    0.0000 Se  0  0  0  0  0  2  0  0  0  0  0  0
    1.2990   -0.7500    0.0000 C   0  0  0  0  0  0  0  0  0  0  0  0
    1.2990    0.7500    0.0000 C   0  0  0  0  0  0  0  0  0  0  0  0
    0.0000    1.5000    0.0000 C   0  0  0  0  0  0  0  0  0  0  0  0
   -1.2990    0.7500    0.0000 C   0  0  0  0  0  0  0  0  0  0  0  0
   -1.2990   -0.7500    0.0000 C   0  0  0  0  0  0  0  0  0  0  0  0
    0.0000   -1.5000    0.0000 C   0  0  0  0  0  0  0  0  0  0  0  0
  1  2  2  0
  2  3  1  0
  3  4  1  0
  4  5  1  0
  5  6  1  0
  6  7  1  0
  7  8  1  0
  8  9  2  0
  9 10  1  0
 10 11  2  0
 11 12  1  0
 12 13  2  0
 13  8  1  0
 13 14  1  0
 14  6  1  0
 14 15  2  0
  3 16  1  0
 16 17  1  0
 17 18  2  0
 18 19  1  0
 19 20  2  0
 20 21  1  0
 21 22  2  0
 22  2  1  0
 22 17  1  0
M  END
> <chembl_id>
CHEMBL2035460

> <chembl_pref_name>
ETHASELEN

$$$$

     RDKit          2D

 17 18  0  0  1  0  0  0  0  0999 V2000
    5.7764   -3.9315    0.0000 C   0  0  0  0  0  0  0  0  0  0  0  0
    6.4277   -3.5549    0.0000 C   0  0  0  0  0  0  0  0  0  0  0  0
    7.0748   -3.9315    0.0000 C   0  0  0  0  0  0  0  0  0  0  0  0
    7.0748   -4.6807    0.0000 C   0  0  0  0  0  0  0  0  0  0  0  0
    6.4277   -5.0533    0.0000 C   0  0  0  0  0  0  0  0  0  0  0  0
    5.7764   -4.6807    0.0000 C   0  0  0  0  0  0  0  0  0  0  0  0
    7.7889   -4.9103    0.0000 C   0  0  0  0  0  0  0  0  0  0  0  0
    8.2275   -4.3040    0.0000 O   0  0  0  0  0  0  0  0  0  0  0  0
    7.7889   -3.6978    0.0000 B   0  0  0  0  0  0  0  0  0  0  0  0
    8.0185   -2.9837    0.0000 O   0  0  0  0  0  0  0  0  0  0  0  0
    8.0185   -5.6244    0.0000 C   0  0  0  0  0  0  0  0  0  0  0  0
    7.5174   -6.1830    0.0000 N   0  0  0  0  0  0  0  0  0  0  0  0
    6.4277   -2.8057    0.0000 O   0  0  0  0  0  0  0  0  0  0  0  0
    5.7764   -2.4331    0.0000 C   0  0  0  0  0  0  0  0  0  0  0  0
    5.7764   -1.6840    0.0000 C   0  0  0  0  0  0  0  0  0  0  0  0
    5.1293   -1.3073    0.0000 C   0  0  0  0  0  0  0  0  0  0  0  0
    5.1293   -0.5582    0.0000 O   0  0  0  0  0  0  0  0  0  0  0  0
  2  1  2  0
  3  2  1  0
  4  3  2  0
  5  4  1  0
  6  5  2  0
  1  6  1  0
  4  7  1  0
  8  7  1  0
  9  8  1  0
  3  9  1  0
  9 10  1  0
  7 11  1  6
 11 12  1  0
  2 13  1  0
 13 14  1  0
 14 15  1  0
 15 16  1  0
 16 17  1  0
M  END
> <chembl_id>
CHEMBL3549142

> <chembl_pref_name>
EPETRABOROLE

$$$$

     RDKit          2D

 36 38  0  0  0  0  0  0  0  0999 V2000
   10.8988   -1.2095    0.0000 P   0  0  0  0  0  0  0  0  0  0  0  0
   10.8988   -2.0345    0.0000 O   0  0  0  0  0  0  0  0  0  0  0  0
   10.8988   -0.3845    0.0000 O   0  0  0  0  0  0  0  0  0  0  0  0
   11.7238   -1.2095    0.0000 O   0  0  0  0  0  0  0  0  0  0  0  0
   10.0738   -1.2095    0.0000 O   0  0  0  0  0  0  0  0  0  0  0  0
    2.5962   -1.6392    0.0000 C   0  0  0  0  0  0  0  0  0  0  0  0
    2.0770   -2.2803    0.0000 N   0  0  0  0  0  0  0  0  0  0  0  0
    2.3726   -3.0505    0.0000 C   0  0  0  0  0  0  0  0  0  0  0  0
    3.1875   -3.1796    0.0000 C   0  0  0  0  0  0  0  0  0  0  0  0
    3.7067   -2.5385    0.0000 C   0  0  0  0  0  0  0  0  0  0  0  0
    3.4110   -1.7682    0.0000 N   0  0  0  0  0  0  0  0  0  0  0  0
    1.9981   -3.7856    0.0000 N   0  0  0  0  0  0  0  0  0  0  0  0
    2.5814   -4.3690    0.0000 C   0  0  0  0  0  0  0  0  0  0  0  0
    3.3165   -3.9945    0.0000 C   0  0  0  0  0  0  0  0  0  0  0  0
    4.5136   -2.7100    0.0000 C   0  0  0  0  0  0  0  0  0  0  0  0
    5.1268   -2.1579    0.0000 C   0  0  0  0  0  0  0  0  0  0  0  0
    4.8493   -3.4636    0.0000 C   0  0  0  0  0  0  0  0  0  0  0  0
    5.6698   -3.3774    0.0000 N   0  0  0  0  0  0  0  0  0  0  0  0
    5.8412   -2.5705    0.0000 N   0  0  0  0  0  0  0  0  0  0  0  0
    6.6114   -2.2748    0.0000 C   0  0  0  0  0  0  0  0  0  0  0  0
    7.2525   -2.7940    0.0000 C   0  0  0  0  0  0  0  0  0  0  0  0
    8.0062   -2.4585    0.0000 C   0  0  0  0  0  0  0  0  0  0  0  0
    8.7599   -2.1230    0.0000 N   0  0  0  0  0  0  0  0  0  0  0  0
    6.6976   -1.4543    0.0000 C   0  0  0  0  0  0  0  0  0  0  0  0
    7.2406   -0.2349    0.0000 C   0  0  0  0  0  0  0  0  0  0  0  0
    6.4201   -0.1487    0.0000 C   0  0  0  0  0  0  0  0  0  0  0  0
    6.0845   -0.9023    0.0000 C   0  0  0  0  0  0  0  0  0  0  0  0
    7.4121   -1.0419    0.0000 C   0  0  0  0  0  0  0  0  0  0  0  0
    5.3292   -0.5707    0.0000 H   0  0  0  0  0  0  0  0  0  0  0  0
    6.5021    0.6723    0.0000 H   0  0  0  0  0  0  0  0  0  0  0  0
    7.3311    0.5851    0.0000 H   0  0  0  0  0  0  0  0  0  0  0  0
    7.8283   -1.7542    0.0000 H   0  0  0  0  0  0  0  0  0  0  0  0
    5.6683    0.1908    0.0000 H   0  0  0  0  0  0  0  0  0  0  0  0
    5.5294   -1.5125    0.0000 H   0  0  0  0  0  0  0  0  0  0  0  0
    8.0475   -0.0634    0.0000 H   0  0  0  0  0  0  0  0  0  0  0  0
    8.2199   -0.8746    0.0000 H   0  0  0  0  0  0  0  0  0  0  0  0
  1  2  1  0
  1  3  1  0
  1  4  2  0
  1  5  1  0
  6  7  2  0
  7  8  1  0
  8  9  2  0
  9 10  1  0
 10 11  2  0
  6 11  1  0
 12 13  1  0
 13 14  2  0
  8 12  1  0
  9 14  1  0
 10 15  1  0
 17 18  2  0
 18 19  1  0
 16 19  1  0
 16 15  2  0
 15 17  1  0
 19 20  1  0
 20 21  1  0
 21 22  1  0
 22 23  3  0
 20 24  1  1
 25 26  1  0
 26 27  1  0
 25 28  1  0
 27 24  1  0
 24 28  1  0
 27 29  1  0
 26 30  1  0
 25 31  1  0
 28 32  1  0
 26 33  1  0
 27 34  1  0
 25 35  1  0
 28 36  1  0
M  ISO  8  29   2  30   2  31   2  32   2  33   2  34   2  35   2  36   2
M  END
> <chembl_id>
CHEMBL4594382

> <chembl_pref_name>
DEURUXOLITINIB PHOSPHATE

$$$$

     RDKit          2D

 34 37  0  0  0  0  0  0  0  0999 V2000
   -3.8766    1.3120    0.0000 N   0  0  0  0  0  0  0  0  0  0  0  0
   -4.5911    0.8995    0.0000 C   0  0  0  0  0  0  0  0  0  0  0  0
   -3.8766   -0.3380    0.0000 N   0  0  0  0  0  0  0  0  0  0  0  0
   -3.1622    0.0745    0.0000 C   0  0  0  0  0  0  0  0  0  0  0  0
   -3.1622    0.8995    0.0000 C   0  0  0  0  0  0  0  0  0  0  0  0
   -2.4477   -0.3380    0.0000 C   0  0  0  0  0  0  0  0  0  0  0  0
   -1.7332    0.0745    0.0000 N   0  0  0  0  0  0  0  0  0  0  0  0
   -2.4477    1.3120    0.0000 O   0  0  0  0  0  0  0  0  0  0  0  0
   -3.8766   -1.1630    0.0000 N   0  0  0  0  0  0  0  0  0  0  0  0
   -3.1622   -1.5755    0.0000 C   0  0  0  0  0  0  0  0  0  0  0  0
   -2.4477   -1.1630    0.0000 C   0  0  0  0  0  0  0  0  0  0  0  0
   -1.0188   -1.1630    0.0000 C   0  0  0  0  0  0  0  0  0  0  0  0
   -1.0188   -0.3380    0.0000 C   0  0  0  0  0  0  0  0  0  0  0  0
   -0.3043    0.0745    0.0000 C   0  0  0  0  0  0  0  0  0  0  0  0
   -0.3043   -1.5755    0.0000 C   0  0  0  0  0  0  0  0  0  0  0  0
    0.4102   -1.1630    0.0000 C   0  0  0  0  0  0  0  0  0  0  0  0
    0.4102   -0.3380    0.0000 C   0  0  0  0  0  0  0  0  0  0  0  0
    0.4102    1.3120    0.0000 C   0  0  0  0  0  0  0  0  0  0  0  0
   -0.3043    0.8995    0.0000 O   0  0  0  0  0  0  0  0  0  0  0  0
    1.1246    0.0745    0.0000 C   0  0  0  0  0  0  0  0  0  0  0  0
    1.1246    0.8995    0.0000 N   0  0  0  0  0  0  0  0  0  0  0  0
   -5.0036   -1.6861    0.0000 C   0  0  0  0  0  0  0  0  0  0  0  0
   -4.5911   -2.4006    0.0000 C   0  0  0  0  0  0  0  0  0  0  0  0
   -3.8766   -2.8131    0.0000 C   0  0  0  0  0  0  0  0  0  0  0  0
   -3.1622   -2.4006    0.0000 N   0  0  0  0  0  0  0  0  0  0  0  0
    1.9092   -0.1804    0.0000 N   0  0  0  0  0  0  0  0  0  0  0  0
    2.3942    0.4870    0.0000 N   0  0  0  0  0  0  0  0  0  0  0  0
    1.9093    1.1544    0.0000 C   0  0  0  0  0  0  0  0  0  0  0  0
   -5.4161   -2.4005    0.0000 C   0  0  0  0  0  0  0  0  0  0  0  0
   -3.8766   -3.6381    0.0000 O   0  0  0  0  0  0  0  0  0  0  0  0
   -5.0036    1.6140    0.0000 H   0  0  0  0  0  0  0  0  0  0  0  0
   -5.3056    0.4870    0.0000 H   0  0  0  0  0  0  0  0  0  0  0  0
   -4.1786    0.1851    0.0000 H   0  0  0  0  0  0  0  0  0  0  0  0
    3.2146    0.4008    0.0000 C   0  0  0  0  0  0  0  0  0  0  0  0
  1  2  1  0
  3  4  1  0
  4  5  1  0
  1  5  1  0
  6  7  1  0
  4  6  2  0
  5  8  2  0
  9 10  1  0
 10 11  2  0
  3  9  2  0
 11  6  1  0
 12 13  1  0
  7 13  1  0
 15 16  1  0
 16 17  2  0
 14 17  1  0
 12 15  2  0
 14 13  2  0
 18 19  1  0
 20 21  1  0
 19 14  1  0
 17 20  1  0
 22 23  1  0
 23 24  1  0
 24 25  1  0
 25 10  1  0
 26 27  1  0
 27 28  1  0
 20 26  2  0
 21 28  2  0
 22 29  1  0
 29 23  1  0
 24 30  2  0
  2 31  1  0
  2 32  1  0
  2 33  1  0
 27 34  1  0
M  ISO  3  31   2  32   2  33   2
M  END
> <chembl_id>
CHEMBL4435170

> <chembl_pref_name>
DEUCRAVACITINIB

$$$$

     RDKit          2D

 23 26  0  0  0  0  0  0  0  0999 V2000
   -0.1549  -16.0303    0.0000 C   0  0  0  0  0  0  0  0  0  0  0  0
   -0.9029  -16.3782    0.0000 C   0  0  0  0  0  0  0  0  0  0  0  0
   -1.6429  -16.0086    0.0000 C   0  0  0  0  0  0  0  0  0  0  0  0
    0.0383  -15.2261    0.0000 C   0  0  0  0  0  0  0  0  0  0  0  0
   -1.8202  -15.2044    0.0000 O   0  0  0  0  0  0  0  0  0  0  0  0
   -0.4695  -14.5715    0.0000 C   0  0  0  0  0  0  0  0  0  0  0  0
   -1.2977  -14.5650    0.0000 C   0  0  0  0  0  0  0  0  0  0  0  0
    0.5575  -16.4461    0.0000 C   0  0  0  0  0  0  0  0  0  0  0  0
    0.5575  -17.2732    0.0000 C   0  0  0  0  0  0  0  0  0  0  0  0
   -0.1549  -17.6845    0.0000 C   0  0  0  0  0  0  0  0  0  0  0  0
   -0.8683  -17.2732    0.0000 C   0  0  0  0  0  0  0  0  0  0  0  0
   -1.5788  -17.6875    0.0000 C   0  0  0  0  0  0  0  0  0  0  0  0
   -2.2974  -17.2793    0.0000 C   0  0  0  0  0  0  0  0  0  0  0  0
   -2.3010  -16.4522    0.0000 O   0  0  0  0  0  0  0  0  0  0  0  0
    1.2709  -16.0366    0.0000 C   0  0  0  0  0  0  0  0  0  0  0  0
    0.5621  -15.6191    0.0000 H   0  0  0  0  0  0  0  0  0  0  0  0
   -0.8637  -18.0912    0.0000 H   0  0  0  0  0  0  0  0  0  0  0  0
   -1.5742  -18.5100    0.0000 C   0  0  0  0  0  0  0  0  0  0  0  0
   -3.0074  -17.6946    0.0000 O   0  0  0  0  0  0  0  0  0  0  0  0
   -1.6360  -16.8299    0.0000 H   0  0  0  0  0  0  0  0  0  0  0  0
   -1.6473  -13.8205    0.0000 C   0  0  0  0  0  0  0  0  0  0  0  0
   -0.5804  -14.9701    0.0000 O   0  0  0  0  0  0  0  0  0  0  0  0
   -1.1607  -15.5505    0.0000 O   0  0  0  0  0  0  0  0  0  0  0  0
  2  3  1  0
  4  6  1  0
  1  2  1  0
  5  7  1  0
 11 12  1  0
 12 13  1  0
 13 14  1  0
 14  3  1  0
  6  7  1  0
  8 15  1  6
  8  9  1  0
  1 16  1  6
  1  4  1  0
 11 17  1  6
 12 18  1  1
  3  5  1  0
 13 19  1  1
  8  1  1  0
  3 20  1  1
  9 10  1  0
  7 21  1  1
 10 11  1  0
  7 22  1  0
  2 11  1  0
 22 23  1  0
  2 23  1  6
M  END
> <chembl_id>
CHEMBL252518

> <chembl_pref_name>
ARTENIMOL

$$$$

     RDKit          2D

 45 48  0  0  0  0  0  0  0  0999 V2000
   -2.3737   -0.1109    0.0000 C   0  0  0  0  0  0  0  0  0  0  0  0
   -2.3875    0.5918    0.0000 C   0  0  0  0  0  0  0  0  0  0  0  0
   -1.7379   -0.4996    0.0000 C   0  0  0  0  0  0  0  0  0  0  0  0
   -2.9984   -0.4996    0.0000 C   0  0  0  0  0  0  0  0  0  0  0  0
   -1.7945    0.9445    0.0000 C   0  0  0  0  0  0  0  0  0  0  0  0
   -3.0336    0.9266    0.0000 C   0  0  0  0  0  0  0  0  0  0  0  0
   -1.7379   -1.2126    0.0000 C   0  0  0  0  0  0  0  0  0  0  0  0
   -1.1167   -0.2138    0.0000 C   0  0  0  0  0  0  0  0  0  0  0  0
   -2.9984   -1.2126    0.0000 C   0  0  0  0  0  0  0  0  0  0  0  0
   -3.6376   -0.1109    0.0000 C   0  0  0  0  0  0  0  0  0  0  0  0
   -1.7945    1.6542    0.0000 C   0  0  0  0  0  0  0  0  0  0  0  0
   -3.0336    1.6542    0.0000 C   0  0  0  0  0  0  0  0  0  0  0  0
   -2.3668   -1.6013    0.0000 N   0  0  0  0  0  0  0  0  0  0  0  0
   -1.1380   -1.5730    0.0000 C   0  0  0  0  0  0  0  0  0  0  0  0
   -0.4775   -0.5314    0.0000 O   0  0  0  0  0  0  0  0  0  0  0  0
   -1.1167    0.5352    0.0000 O   0  0  0  0  0  0  0  0  0  0  0  0
   -3.6376   -1.5730    0.0000 C   0  0  0  0  0  0  0  0  0  0  0  0
   -4.2624   -0.4609    0.0000 O   0  0  0  0  0  0  0  0  0  0  0  0
   -3.6376    0.5559    0.0000 O   0  0  0  0  0  0  0  0  0  0  0  0
   -2.3875    2.0600    0.0000 C   0  0  0  0  0  0  0  0  0  0  0  0
    0.1542   -0.2138    0.0000 C   0  0  0  0  0  0  0  0  0  0  0  0
   -4.8947   -0.1109    0.0000 C   0  0  0  0  0  0  0  0  0  0  0  0
    0.7120   -0.5314    0.0000 C   0  0  0  0  0  0  0  0  0  0  0  0
   -0.1461    0.3654    0.0000 C   0  0  0  0  0  0  0  0  0  0  0  0
    0.3806    0.3654    0.0000 C   0  0  0  0  0  0  0  0  0  0  0  0
    1.3263   -0.2138    0.0000 N   0  0  0  0  0  0  0  0  0  0  0  0
    1.9621   -0.5665    0.0000 C   0  0  0  0  0  0  0  0  0  0  0  0
    1.3263    0.5559    0.0000 C   0  0  0  0  0  0  0  0  0  0  0  0
    2.6013   -0.2138    0.0000 C   0  0  0  0  0  0  0  0  0  0  0  0
    3.2225   -0.5314    0.0000 C   0  0  0  0  0  0  0  0  0  0  0  0
    3.2081   -1.2126    0.0000 C   0  0  0  0  0  0  0  0  0  0  0  0
    3.8121   -0.2276    0.0000 C   0  0  0  0  0  0  0  0  0  0  0  0
    2.6013   -1.5585    0.0000 C   0  0  0  0  0  0  0  0  0  0  0  0
    3.8121   -1.5413    0.0000 C   0  0  0  0  0  0  0  0  0  0  0  0
    3.8121    0.4958    0.0000 C   0  0  0  0  0  0  0  0  0  0  0  0
    4.4762   -0.5665    0.0000 C   0  0  0  0  0  0  0  0  0  0  0  0
    2.6013   -2.2647    0.0000 C   0  0  0  0  0  0  0  0  0  0  0  0
    3.8121   -2.2543    0.0000 C   0  0  0  0  0  0  0  0  0  0  0  0
    4.4513    0.8458    0.0000 C   0  0  0  0  0  0  0  0  0  0  0  0
    5.0581   -0.2276    0.0000 C   0  0  0  0  0  0  0  0  0  0  0  0
    3.2329   -2.6388    0.0000 C   0  0  0  0  0  0  0  0  0  0  0  0
    5.0581    0.5207    0.0000 C   0  0  0  0  0  0  0  0  0  0  0  0
   -1.1733    2.0145    0.0000 N   0  0  0  0  0  0  0  0  0  0  0  0
   -1.1484    2.7207    0.0000 O   0  0  0  0  0  0  0  0  0  0  0  0
   -0.4988    1.7211    0.0000 O   0  0  0  0  0  0  0  0  0  0  0  0
  1  4  1  0
  2  5  1  0
  2  6  2  0
  3  7  2  0
  3  8  1  0
  4  9  2  0
  4 10  1  0
  5 11  2  0
  6 12  1  0
  7 13  1  0
  7 14  1  0
  8 15  1  0
  8 16  2  0
  9 17  1  0
 10 18  1  0
 10 19  2  0
 11 20  1  0
 11 43  1  0
 15 21  1  0
 18 22  1  0
 21 23  1  0
 21 24  1  0
 21 25  1  0
 23 26  1  0
 26 27  1  0
 26 28  1  0
 27 29  1  0
 29 30  1  0
 30 31  1  0
 30 32  1  0
 31 33  1  0
 31 34  2  0
 32 35  2  0
 32 36  1  0
 33 37  2  0
 34 38  1  0
 35 39  1  0
 36 40  2  0
 37 41  1  0
 39 42  2  0
  9 13  1  0
 12 20  2  0
 38 41  2  0
 40 42  1  0
  1  2  1  0
  1  3  1  0
 43 44  2  0
 43 45  1  0
M  CHG  2  43   1  45  -1
M  END
> <chembl_id>
CHEMBL250270

> <chembl_pref_name>
LERCANIDIPINE

$$$$

     RDKit          2D

 31 34  0  0  0  0  0  0  0  0999 V2000
   -2.8639    1.5939    0.0000 C   0  0  0  0  0  0  0  0  0  0  0  0
   -3.3831    0.9528    0.0000 N   0  0  0  0  0  0  0  0  0  0  0  0
   -3.0875    0.1826    0.0000 C   0  0  0  0  0  0  0  0  0  0  0  0
   -2.2726    0.0535    0.0000 C   0  0  0  0  0  0  0  0  0  0  0  0
   -1.7534    0.6946    0.0000 C   0  0  0  0  0  0  0  0  0  0  0  0
   -2.0491    1.4649    0.0000 N   0  0  0  0  0  0  0  0  0  0  0  0
   -3.4620   -0.5525    0.0000 N   0  0  0  0  0  0  0  0  0  0  0  0
   -2.8787   -1.1359    0.0000 C   0  0  0  0  0  0  0  0  0  0  0  0
   -2.1436   -0.7614    0.0000 C   0  0  0  0  0  0  0  0  0  0  0  0
   -0.9465    0.5231    0.0000 C   0  0  0  0  0  0  0  0  0  0  0  0
   -0.3334    1.0752    0.0000 C   0  0  0  0  0  0  0  0  0  0  0  0
   -0.6109   -0.2305    0.0000 C   0  0  0  0  0  0  0  0  0  0  0  0
    0.2096   -0.1443    0.0000 N   0  0  0  0  0  0  0  0  0  0  0  0
    0.3811    0.6626    0.0000 N   0  0  0  0  0  0  0  0  0  0  0  0
    1.1513    0.9583    0.0000 C   0  0  0  0  0  0  0  0  0  0  0  0
    1.7924    0.4391    0.0000 C   0  0  0  0  0  0  0  0  0  0  0  0
    2.5461    0.7746    0.0000 C   0  0  0  0  0  0  0  0  0  0  0  0
    3.2998    1.1101    0.0000 N   0  0  0  0  0  0  0  0  0  0  0  0
    1.2375    1.7788    0.0000 C   0  0  0  0  0  0  0  0  0  0  0  0
    1.7805    2.9982    0.0000 C   0  0  0  0  0  0  0  0  0  0  0  0
    0.9600    3.0844    0.0000 C   0  0  0  0  0  0  0  0  0  0  0  0
    0.6244    2.3308    0.0000 C   0  0  0  0  0  0  0  0  0  0  0  0
    1.9520    2.1912    0.0000 C   0  0  0  0  0  0  0  0  0  0  0  0
   -0.1310    2.6624    0.0000 H   0  0  0  0  0  0  0  0  0  0  0  0
    1.0419    3.9054    0.0000 H   0  0  0  0  0  0  0  0  0  0  0  0
    1.8710    3.8182    0.0000 H   0  0  0  0  0  0  0  0  0  0  0  0
    2.3682    1.4789    0.0000 H   0  0  0  0  0  0  0  0  0  0  0  0
    0.2081    3.4239    0.0000 H   0  0  0  0  0  0  0  0  0  0  0  0
    0.0692    1.7206    0.0000 H   0  0  0  0  0  0  0  0  0  0  0  0
    2.5874    3.1697    0.0000 H   0  0  0  0  0  0  0  0  0  0  0  0
    2.7598    2.3585    0.0000 H   0  0  0  0  0  0  0  0  0  0  0  0
  1  2  2  0
  2  3  1  0
  3  4  2  0
  4  5  1  0
  5  6  2  0
  1  6  1  0
  7  8  1  0
  8  9  2  0
  3  7  1  0
  4  9  1  0
  5 10  1  0
 12 13  2  0
 13 14  1  0
 11 14  1  0
 11 10  2  0
 10 12  1  0
 14 15  1  0
 15 16  1  0
 16 17  1  0
 17 18  3  0
 15 19  1  1
 20 21  1  0
 21 22  1  0
 20 23  1  0
 22 19  1  0
 19 23  1  0
 22 24  1  0
 21 25  1  0
 20 26  1  0
 23 27  1  0
 21 28  1  0
 22 29  1  0
 20 30  1  0
 23 31  1  0
M  ISO  8  24   2  25   2  26   2  27   2  28   2  29   2  30   2  31   2
M  END
> <chembl_id>
CHEMBL4594381

> <chembl_pref_name>
DEURUXOLITINIB

$$$$

     RDKit          2D

 19 20  0  0  0  0  0  0  0  0999 V2000
    1.2990   -0.7500    0.0000 C   0  0  0  0  0  0  0  0  0  0  0  0
    0.0000   -1.5000    0.0000 C   0  0  0  0  0  0  0  0  0  0  0  0
   -1.2990   -0.7500    0.0000 C   0  0  0  0  0  0  0  0  0  0  0  0
   -1.2990    0.7500    0.0000 C   0  0  0  0  0  0  0  0  0  0  0  0
    0.0000    1.5000    0.0000 C   0  0  0  0  0  0  0  0  0  0  0  0
    1.2990    0.7500    0.0000 C   0  0  0  0  0  0  0  0  0  0  0  0
   -2.6010    1.4966    0.0000 C   0  0  0  0  0  0  0  0  0  0  0  0
   -2.6062    2.9975    0.0000 C   0  0  0  0  0  0  0  0  0  0  0  0
   -3.9077    3.7433    0.0000 C   0  0  0  0  0  0  0  0  0  0  0  0
   -3.9128    5.2433    0.0000 C   0  0  0  0  0  0  0  0  0  0  0  0
   -2.6163    5.9977    0.0000 C   0  0  0  0  0  0  0  0  0  0  0  0
   -1.3147    5.2521    0.0000 C   0  0  0  0  0  0  0  0  0  0  0  0
   -1.3096    3.7521    0.0000 C   0  0  0  0  0  0  0  0  0  0  0  0
   -3.8999    0.7447    0.0000 S   0  0  0  0  0  0  0  0  0  0  0  0
   -5.2010    1.4929    0.0000 C   0  0  0  0  0  0  0  0  0  0  0  0
   -3.8982   -0.4553    0.0000 O   0  0  0  0  0  0  0  0  0  0  0  0
   -6.4999    0.7410    0.0000 C   0  0  0  0  0  0  0  0  0  0  0  0
   -6.4981   -0.4590    0.0000 N   0  0  0  0  0  0  0  0  0  0  0  0
   -7.5402    1.3391    0.0000 O   0  0  0  0  0  0  0  0  0  0  0  0
  4  5  1  0
  9 10  1  0
  2  3  1  0
 10 11  2  0
  5  6  2  0
 11 12  1  0
  6  1  1  0
 12 13  2  0
 13  8  1  0
  1  2  2  0
  7 14  1  0
  4  7  1  0
 14 15  1  0
  3  4  2  0
 14 16  1  0
  7  8  1  0
 15 17  1  0
 17 18  1  0
  8  9  2  0
 17 19  2  0
M  CHG  2  14   1  16  -1
M  END
> <chembl_id>
CHEMBL1373

> <chembl_pref_name>
MODAFINIL

$$$$

     RDKit          2D

 26 28  0  0  0  0  0  0  0  0999 V2000
   -3.5015    0.1812    0.0000 C   0  0  0  0  0  0  0  0  0  0  0  0
   -2.4377    0.7954    0.0000 C   0  0  0  0  0  0  0  0  0  0  0  0
   -1.3739    0.1812    0.0000 C   0  0  0  0  0  0  0  0  0  0  0  0
   -1.3739   -1.0471    0.0000 C   0  0  0  0  0  0  0  0  0  0  0  0
   -2.4377   -1.6613    0.0000 C   0  0  0  0  0  0  0  0  0  0  0  0
   -3.5015   -1.0471    0.0000 C   0  0  0  0  0  0  0  0  0  0  0  0
   -2.4377   -2.8896    0.0000 C   0  0  0  0  0  0  0  0  0  0  0  0
   -3.5015   -3.5038    0.0000 F   0  0  0  0  0  0  0  0  0  0  0  0
   -1.3739   -3.5038    0.0000 F   0  0  0  0  0  0  0  0  0  0  0  0
   -2.4377   -4.1180    0.0000 F   0  0  0  0  0  0  0  0  0  0  0  0
   -0.3101   -1.6613    0.0000 C   0  0  0  0  0  0  0  0  0  0  0  0
   -0.3101   -2.8896    0.0000 N   0  0  0  0  0  0  0  0  0  0  0  0
    0.7536   -3.5038    0.0000 C   0  0  0  0  0  0  0  0  0  0  0  0
    1.8174   -2.8896    0.0000 C   0  0  0  0  0  0  0  0  0  0  0  0
    2.8812   -3.5038    0.0000 C   0  0  0  0  0  0  0  0  0  0  0  0
    2.8812   -4.7321    0.0000 C   0  0  0  0  0  0  0  0  0  0  0  0
    1.8174   -5.3463    0.0000 C   0  0  0  0  0  0  0  0  0  0  0  0
    0.7536   -4.7321    0.0000 C   0  0  0  0  0  0  0  0  0  0  0  0
    4.0494   -5.1117    0.0000 C   0  0  0  0  0  0  0  0  0  0  0  0
    4.7714   -4.1180    0.0000 O   0  0  0  0  0  0  0  0  0  0  0  0
    4.0494   -3.1242    0.0000 B   0  0  0  0  0  0  0  0  0  0  0  0
    4.4290   -1.9560    0.0000 O   0  0  0  0  0  0  0  0  0  0  0  0
    5.1132   -5.7259    0.0000 C   0  0  0  0  0  0  0  0  0  0  0  0
    3.5498   -6.2339    0.0000 C   0  0  0  0  0  0  0  0  0  0  0  0
    0.7536   -1.0471    0.0000 O   0  0  0  0  0  0  0  0  0  0  0  0
   -4.5653    0.7954    0.0000 F   0  0  0  0  0  0  0  0  0  0  0  0
  2  1  2  0
  3  2  1  0
  4  3  2  0
  5  4  1  0
  6  5  2  0
  1  6  1  0
  5  7  1  0
  7  8  1  0
  7  9  1  0
  7 10  1  0
  4 11  1  0
 11 12  1  0
 12 13  1  0
 14 13  2  0
 15 14  1  0
 16 15  2  0
 17 16  1  0
 18 17  2  0
 13 18  1  0
 16 19  1  0
 20 19  1  0
 21 20  1  0
 15 21  1  0
 21 22  1  0
 19 23  1  0
 19 24  1  0
 11 25  2  0
  1 26  1  0
M  END
> <chembl_id>
CHEMBL2347704

> <chembl_pref_name>
ACOZIBOROLE

$$$$

     RDKit          2D

 22 25  0  0  0  0  0  0  0  0999 V2000
    0.5542   -0.6667    0.0000 C   0  0  0  0  0  0  0  0  0  0  0  0
   -0.6208   -0.6667    0.0000 N   0  0  0  0  0  0  0  0  0  0  0  0
    1.0417    0.3833    0.0000 N   0  0  0  0  0  0  0  0  0  0  0  0
    1.3000   -1.5792    0.0000 C   0  0  0  0  0  0  0  0  0  0  0  0
   -1.3333   -1.5917    0.0000 C   0  0  0  0  0  0  0  0  0  0  0  0
    1.0542   -2.7292    0.0000 C   0  0  0  0  0  0  0  0  0  0  0  0
    0.0167   -3.2542    0.0000 C   0  0  0  0  0  0  0  0  0  0  0  0
   -1.0500   -2.7417    0.0000 C   0  0  0  0  0  0  0  0  0  0  0  0
    2.0042    2.5083    0.0000 N   0  0  0  0  0  0  0  0  0  0  0  0
    2.2125    0.4625    0.0000 C   0  0  0  0  0  0  0  0  0  0  0  0
    0.3625    1.3083    0.0000 C   0  0  0  0  0  0  0  0  0  0  0  0
    2.7167    1.5083    0.0000 C   0  0  0  0  0  0  0  0  0  0  0  0
    0.8542    2.4000    0.0000 C   0  0  0  0  0  0  0  0  0  0  0  0
    2.4542   -1.2042    0.0000 C   0  0  0  0  0  0  0  0  0  0  0  0
    1.9667   -3.5167    0.0000 C   0  0  0  0  0  0  0  0  0  0  0  0
    2.4375    3.5958    0.0000 C   0  0  0  0  0  0  0  0  0  0  0  0
   -2.4833   -1.2750    0.0000 C   0  0  0  0  0  0  0  0  0  0  0  0
   -1.9208   -3.5875    0.0000 C   0  0  0  0  0  0  0  0  0  0  0  0
    3.3375   -2.0000    0.0000 C   0  0  0  0  0  0  0  0  0  0  0  0
    3.0917   -3.1417    0.0000 C   0  0  0  0  0  0  0  0  0  0  0  0
   -3.3458   -2.0917    0.0000 C   0  0  0  0  0  0  0  0  0  0  0  0
   -3.0583   -3.2417    0.0000 C   0  0  0  0  0  0  0  0  0  0  0  0
  2  1  2  0
  3  1  1  0
  4  1  1  0
  5  2  1  0
  6  4  2  0
  7  6  1  0
  8  5  2  0
  9 13  1  0
 10  3  1  0
 11  3  1  0
 12 10  1  0
 13 11  1  0
 14  4  1  0
 15  6  1  0
 16  9  1  0
 17  5  1  0
 18  8  1  0
 19 14  2  0
 20 19  1  0
 21 17  2  0
 22 21  1  0
 12  9  1  0
  7  8  1  0
 15 20  2  0
 18 22  2  0
M  END
> <chembl_id>
CHEMBL340801

> <chembl_pref_name>
PERLAPINE

$$$$

     RDKit          2D

 30 31  0  0  0  0  0  0  0  0999 V2000
    0.4167   -0.1917    0.0000 C   0  0  0  0  0  0  0  0  0  0  0  0
   -1.1458   -0.1917    0.0000 C   0  0  0  0  0  0  0  0  0  0  0  0
   -0.3500   -0.6542    0.0000 C   0  0  0  0  0  0  0  0  0  0  0  0
    0.4167    0.7458    0.0000 C   0  0  0  0  0  0  0  0  0  0  0  0
   -1.1458    0.7458    0.0000 C   0  0  0  0  0  0  0  0  0  0  0  0
    1.2417   -0.6875    0.0000 C   0  0  0  0  0  0  0  0  0  0  0  0
   -0.3500    1.2000    0.0000 N   0  0  0  0  0  0  0  0  0  0  0  0
   -0.3500   -1.5792    0.0000 C   0  0  0  0  0  0  0  0  0  0  0  0
   -2.1708   -0.4125    0.0000 C   0  0  0  0  0  0  0  0  0  0  0  0
   -1.1458   -2.0500    0.0000 C   0  0  0  0  0  0  0  0  0  0  0  0
    2.0292    2.5833    0.0000 C   0  0  0  0  0  0  0  0  0  0  0  0
    2.0167   -0.2292    0.0000 O   0  0  0  0  0  0  0  0  0  0  0  0
    1.2417    1.2083    0.0000 C   0  0  0  0  0  0  0  0  0  0  0  0
    1.2417   -1.5625    0.0000 O   0  0  0  0  0  0  0  0  0  0  0  0
   -1.1458   -2.9792    0.0000 C   0  0  0  0  0  0  0  0  0  0  0  0
    1.2417    2.1250    0.0000 O   0  0  0  0  0  0  0  0  0  0  0  0
    2.0292    3.4875    0.0000 O   0  0  0  0  0  0  0  0  0  0  0  0
   -2.4958   -1.2792    0.0000 O   0  0  0  0  0  0  0  0  0  0  0  0
    2.8167    2.1458    0.0000 N   0  0  0  0  0  0  0  0  0  0  0  0
   -1.9333   -1.6042    0.0000 Cl  0  0  0  0  0  0  0  0  0  0  0  0
   -2.8750    0.2000    0.0000 O   0  0  0  0  0  0  0  0  0  0  0  0
    0.4500   -2.0542    0.0000 C   0  0  0  0  0  0  0  0  0  0  0  0
   -1.9833    1.2000    0.0000 C   0  0  0  0  0  0  0  0  0  0  0  0
   -1.9333   -3.4167    0.0000 Cl  0  0  0  0  0  0  0  0  0  0  0  0
    2.8167   -0.7250    0.0000 C   0  0  0  0  0  0  0  0  0  0  0  0
    0.4500   -2.9792    0.0000 C   0  0  0  0  0  0  0  0  0  0  0  0
   -0.3500   -3.4500    0.0000 C   0  0  0  0  0  0  0  0  0  0  0  0
   -3.7000    0.2000    0.0000 C   0  0  0  0  0  0  0  0  0  0  0  0
    3.2875    0.0583    0.0000 C   0  0  0  0  0  0  0  0  0  0  0  0
    2.4625   -1.5500    0.0000 C   0  0  0  0  0  0  0  0  0  0  0  0
  2  3  1  0
  3  1  1  0
  4  1  2  0
  5  7  1  0
  6  1  1  0
  7  4  1  0
  8  3  1  0
  9  2  1  0
 10  8  2  0
 11 16  1  0
 12  6  1  0
 13  4  1  0
 14  6  2  0
 15 10  1  0
 16 13  1  0
 17 11  2  0
 18  9  2  0
 19 11  1  0
 20 10  1  0
 21  9  1  0
 22  8  1  0
 23  5  1  0
 24 15  1  0
 25 12  1  0
 26 22  2  0
 27 26  1  0
 28 21  1  0
 29 25  1  0
 30 25  1  0
  2  5  2  0
 15 27  2  0
M  END
> <chembl_id>
CHEMBL2104876

> <chembl_pref_name>
LEMILDIPINE

$$$$

     RDKit          2D

 47 47  0  0  0  0  0  0  0  0999 V2000
   -2.6656   -7.2713    0.0000 C   0  0  0  0  0  0  0  0  0  0  0  0
   -2.6656   -8.0963    0.0000 C   0  0  0  0  0  0  0  0  0  0  0  0
   -1.9531   -8.5025    0.0000 C   0  0  0  0  0  0  0  0  0  0  0  0
   -1.2447   -7.2713    0.0000 C   0  0  0  0  0  0  0  0  0  0  0  0
   -1.9531   -6.8526    0.0000 C   0  0  0  0  0  0  0  0  0  0  0  0
   -3.3818   -6.8589    0.0000 O   0  0  0  0  0  0  0  0  0  0  0  0
   -1.9531   -6.0276    0.0000 C   0  0  0  0  0  0  0  0  0  0  0  0
   -1.2422   -5.6172    0.0000 C   0  0  0  0  0  0  0  0  0  0  0  0
   -1.2422   -4.7923    0.0000 C   0  0  0  0  0  0  0  0  0  0  0  0
   -0.5272   -4.3777    0.0000 C   0  0  0  0  0  0  0  0  0  0  0  0
    0.1878   -4.7923    0.0000 C   0  0  0  0  0  0  0  0  0  0  0  0
    0.9028   -4.3777    0.0000 C   0  0  0  0  0  0  0  0  0  0  0  0
    1.6178   -4.7923    0.0000 C   0  0  0  0  0  0  0  0  0  0  0  0
    2.3328   -4.3777    0.0000 C   0  0  0  0  0  0  0  0  0  0  0  0
    3.0478   -4.7923    0.0000 C   0  0  0  0  0  0  0  0  0  0  0  0
    3.7587   -4.3777    0.0000 C   0  0  0  0  0  0  0  0  0  0  0  0
    4.4736   -4.7923    0.0000 C   0  0  0  0  0  0  0  0  0  0  0  0
    3.7587   -3.5527    0.0000 O   0  0  0  0  0  0  0  0  0  0  0  0
    4.4736   -5.6172    0.0000 O   0  0  0  0  0  0  0  0  0  0  0  0
    5.1887   -4.3777    0.0000 C   0  0  0  0  0  0  0  0  0  0  0  0
    3.7587   -6.0276    0.0000 C   0  0  0  0  0  0  0  0  0  0  0  0
    3.7587   -6.8526    0.0000 C   0  0  0  0  0  0  0  0  0  0  0  0
    3.0478   -5.6172    0.0000 O   0  0  0  0  0  0  0  0  0  0  0  0
    4.4736   -7.2672    0.0000 C   0  0  0  0  0  0  0  0  0  0  0  0
    2.3328   -6.8526    0.0000 C   0  0  0  0  0  0  0  0  0  0  0  0
    0.9028   -6.8526    0.0000 C   0  0  0  0  0  0  0  0  0  0  0  0
    0.1878   -7.2672    0.0000 C   0  0  0  0  0  0  0  0  0  0  0  0
   -0.5272   -6.8526    0.0000 C   0  0  0  0  0  0  0  0  0  0  0  0
    5.1887   -6.8526    0.0000 O   0  0  0  0  0  0  0  0  0  0  0  0
    4.4736   -8.0921    0.0000 C   0  0  0  0  0  0  0  0  0  0  0  0
    3.7587   -8.5025    0.0000 C   0  0  0  0  0  0  0  0  0  0  0  0
    3.7587   -9.3275    0.0000 O   0  0  0  0  0  0  0  0  0  0  0  0
    3.0478   -8.0921    0.0000 C   0  0  0  0  0  0  0  0  0  0  0  0
    3.0478   -7.2672    0.0000 C   0  0  0  0  0  0  0  0  0  0  0  0
    2.3328   -8.5025    0.0000 C   0  0  0  0  0  0  0  0  0  0  0  0
    1.6178   -8.0921    0.0000 C   0  0  0  0  0  0  0  0  0  0  0  0
    2.3328   -9.3275    0.0000 O   0  0  0  0  0  0  0  0  0  0  0  0
    1.6178   -7.2672    0.0000 C   0  0  0  0  0  0  0  0  0  0  0  0
    0.9028   -8.5025    0.0000 C   0  0  0  0  0  0  0  0  0  0  0  0
    0.1878   -8.0921    0.0000 C   0  0  0  0  0  0  0  0  0  0  0  0
   -0.5272   -8.5025    0.0000 C   0  0  0  0  0  0  0  0  0  0  0  0
   -1.2422   -8.0921    0.0000 C   0  0  0  0  0  0  0  0  0  0  0  0
   -0.5272   -9.3275    0.0000 O   0  0  0  0  0  0  0  0  0  0  0  0
   -1.9519   -9.3275    0.0000 O   0  0  0  0  0  0  0  0  0  0  0  0
    0.9028   -9.3275    0.0000 O   0  0  0  0  0  0  0  0  0  0  0  0
    3.7559   -7.6734    0.0000 O   0  0  0  0  0  0  0  0  0  0  0  0
    2.9599   -6.6329    0.0000 H   0  0  0  0  0  0  0  0  0  0  0  0
 22 34  1  0
  1  2  1  0
 22 24  1  0
 11 12  1  0
 34 25  1  0
 25 38  1  0
  1  6  1  6
 38 26  1  0
 12 13  2  0
 26 27  1  0
 27 28  1  0
 13 14  1  0
 24 29  1  1
  5  7  2  0
 24 30  1  0
 14 15  2  0
 30 31  1  0
  1  5  1  0
 31 32  1  1
 15 16  1  0
 31 33  1  0
  7  8  1  0
 16 17  1  0
 33 35  1  0
  2  3  1  0
 35 36  1  0
 16 18  1  6
 35 37  1  1
  8  9  2  0
 17 19  1  0
 36 39  1  0
  3 42  1  0
 39 40  1  0
 17 20  1  1
 40 41  1  0
  9 10  1  0
 41 42  1  0
 19 21  1  0
 41 43  1  1
  4  5  1  0
  3 44  1  1
 21 22  1  0
 39 45  1  1
 10 11  2  0
 34 46  1  6
 21 23  2  0
 22 47  1  6
M  END
> <chembl_id>
CHEMBL252059

> <chembl_pref_name>
FILIPIN

$$$$

     RDKit          2D

 42 43  0  0  0  0  0  0  0  0999 V2000
    7.8005  -14.3132    0.0000 C   0  0  0  0  0  0  0  0  0  0  0  0
    7.4166  -14.9818    0.0000 Si  0  0  0  0  0  4  0  0  0  0  0  0
    8.1876  -14.9799    0.0000 C   0  0  0  0  0  0  0  0  0  0  0  0
    8.1843  -15.7536    0.0000 C   0  0  0  0  0  0  0  0  0  0  0  0
    7.4166  -15.7536    0.0000 C   0  0  0  0  0  0  0  0  0  0  0  0
    7.8005  -16.4184    0.0000 C   0  0  0  0  0  0  0  0  0  0  0  0
    6.7527  -14.6003    0.0000 O   0  0  0  0  0  0  0  0  0  0  0  0
    6.7527  -13.8303    0.0000 C   0  0  0  0  0  0  0  0  0  0  0  0
    6.0789  -13.4432    0.0000 C   0  0  0  0  0  0  0  0  0  0  0  0
    5.4137  -13.8303    0.0000 O   0  0  0  0  0  0  0  0  0  0  0  0
    4.7485  -13.4432    0.0000 C   0  0  0  0  0  0  0  0  0  0  0  0
    4.0747  -13.8303    0.0000 C   0  0  0  0  0  0  0  0  0  0  0  0
    3.4095  -13.4432    0.0000 C   0  0  0  0  0  0  0  0  0  0  0  0
    2.7357  -13.8303    0.0000 C   0  0  0  0  0  0  0  0  0  0  0  0
    2.0705  -13.4432    0.0000 C   0  0  0  0  0  0  0  0  0  0  0  0
    2.0705  -12.6691    0.0000 C   0  0  0  0  0  0  0  0  0  0  0  0
    2.7357  -12.2820    0.0000 C   0  0  0  0  0  0  0  0  0  0  0  0
    2.7357  -11.5120    0.0000 N   0  0  0  0  0  0  0  0  0  0  0  0
    3.3599  -11.0637    0.0000 C   0  0  0  0  0  0  0  0  0  0  0  0
    3.1191  -10.3240    0.0000 C   0  0  0  0  0  0  0  0  0  0  0  0
    3.7903   -9.9325    0.0000 C   0  0  0  0  0  0  0  0  0  0  0  0
    4.4597  -10.3120    0.0000 O   0  0  0  0  0  0  0  0  0  0  0  0
    4.4684  -11.0820    0.0000 C   0  0  0  0  0  0  0  0  0  0  0  0
    5.1379  -11.4616    0.0000 C   0  0  0  0  0  0  0  0  0  0  0  0
    5.9455  -11.0848    0.0000 C   0  0  0  0  0  0  0  0  0  0  0  0
    6.7083  -11.4599    0.0000 C   0  0  0  0  0  0  0  0  0  0  0  0
    6.7527  -12.2820    0.0000 C   0  0  0  0  0  0  0  0  0  0  0  0
    6.0789  -12.6691    0.0000 C   0  0  0  0  0  0  0  0  0  0  0  0
    5.7161  -12.1329    0.0000 O   0  0  0  0  0  0  0  0  0  0  0  0
    6.0296  -11.6143    0.0000 C   0  0  0  0  0  0  0  0  0  0  0  0
    5.1465  -12.2356    0.0000 C   0  0  0  0  0  0  0  0  0  0  0  0
    3.8031  -11.4765    0.0000 O   0  0  0  0  0  0  0  0  0  0  0  0
    2.3489  -10.3240    0.0000 N   0  0  0  0  0  0  0  0  0  0  0  0
    2.1083  -11.0637    0.0000 N   0  0  0  0  0  0  0  0  0  0  0  0
    1.4008  -12.2820    0.0000 C   0  0  0  0  0  0  0  0  0  0  0  0
    2.7357  -14.6003    0.0000 O   0  0  0  0  0  0  0  0  0  0  0  0
    2.0705  -14.9829    0.0000 C   0  0  0  0  0  0  0  0  0  0  0  0
    3.4095  -12.6691    0.0000 O   0  0  0  0  0  0  0  0  0  0  0  0
    4.0747  -12.2820    0.0000 C   0  0  0  0  0  0  0  0  0  0  0  0
    4.0747  -14.6003    0.0000 C   0  0  0  0  0  0  0  0  0  0  0  0
    4.7805  -12.7348    0.0000 O   0  0  0  0  0  0  0  0  0  0  0  0
    6.7527  -16.1404    0.0000 C   0  0  0  0  0  0  0  0  0  0  0  0
  2  1  1  0
  3  2  1  0
  5  4  1  0
  6  5  1  0
  8  7  1  0
  9  8  1  6
 10  9  1  0
  9 28  1  0
 11 10  1  0
 12 11  1  0
 11 41  2  0
 13 12  1  0
 12 40  1  6
 14 13  1  0
 13 38  1  6
 15 14  1  0
 14 36  1  1
 15 16  1  0
 16 17  1  0
 16 35  1  6
 17 18  1  0
 18 19  1  0
 34 18  1  0
 19 20  2  0
 20 21  1  0
 20 33  1  0
 21 22  1  0
 22 23  1  0
 23 24  1  0
 23 32  2  0
 24 25  2  0
 24 31  1  0
 25 26  1  0
 26 27  2  0
 28 27  1  0
 28 29  1  1
 29 30  1  0
 33 34  2  0
 36 37  1  0
 38 39  1  0
  7  2  1  0
  2  5  1  0
  5 42  1  0
M  END
> <chembl_id>
CHEMBL4068914

> <chembl_pref_name>
None

$$$$

     RDKit          2D

 20 22  0  0  0  0  0  0  0  0999 V2000
   -2.5583   -0.0792    0.0000 C   0  0  0  0  0  0  0  0  0  0  0  0
   -1.3000    0.2458    0.0000 C   0  0  0  0  0  0  0  0  0  0  0  0
   -3.3208    0.9958    0.0000 N   0  0  0  0  0  0  0  0  0  0  0  0
    0.8792   -0.1542    0.0000 C   0  0  0  0  0  0  0  0  0  0  0  0
   -2.7458   -1.8417    0.0000 N   0  0  0  0  0  0  0  0  0  0  0  0
   -0.3250   -0.5292    0.0000 S   0  0  0  0  0  0  0  0  0  0  0  0
    1.8542   -1.0792    0.0000 N   0  0  0  0  0  0  0  0  0  0  0  0
    3.4792    0.6208    0.0000 N   0  0  0  0  0  0  0  0  0  0  0  0
    1.2167    1.1083    0.0000 C   0  0  0  0  0  0  0  0  0  0  0  0
    2.4750    1.5000    0.0000 C   0  0  0  0  0  0  0  0  0  0  0  0
   -1.3000    1.6500    0.0000 N   0  0  0  0  0  0  0  0  0  0  0  0
    3.2042   -0.7000    0.0000 C   0  0  0  0  0  0  0  0  0  0  0  0
   -2.5583    2.0625    0.0000 C   0  0  0  0  0  0  0  0  0  0  0  0
    0.4917    2.1958    0.0000 N   0  0  0  0  0  0  0  0  0  0  0  0
    2.5292    2.8333    0.0000 N   0  0  0  0  0  0  0  0  0  0  0  0
    1.2167    3.2458    0.0000 C   0  0  0  0  0  0  0  0  0  0  0  0
   -1.9083   -2.9042    0.0000 O   0  0  0  0  0  0  0  0  0  0  0  0
   -4.0958   -2.0875    0.0000 O   0  0  0  0  0  0  0  0  0  0  0  0
    4.1917   -1.5792    0.0000 N   0  0  0  0  0  0  0  0  0  0  0  0
   -0.8500    2.7208    0.0000 C   0  0  0  0  0  0  0  0  0  0  0  0
  2  1  2  0
  3  1  1  0
  4  6  1  0
  5  1  1  0
  6  2  1  0
  7  4  2  0
  8 10  1  0
  9  4  1  0
 10  9  2  0
 11  2  1  0
 12  7  1  0
 13  3  2  0
 14  9  1  0
 15 10  1  0
 16 14  2  0
 17  5  1  0
 18  5  2  0
 19 12  1  0
 20 11  1  0
 11 13  1  0
 12  8  2  0
 15 16  1  0
M  CHG  2   5   1  17  -1
M  END
> <chembl_id>
CHEMBL34722

> <chembl_pref_name>
THIAMIPRINE

$$$$

     RDKit          2D

 33 40  0  0  1  0  0  0  0  0999 V2000
    2.1167   -6.0292    0.0000 N   0  0  0  0  0  0  0  0  0  0  0  0
    0.1792   -6.0125    0.0000 N   0  0  0  0  0  0  0  0  0  0  0  0
    1.1667   -2.7167    0.0000 N   0  0  0  0  0  0  0  0  0  0  0  0
    1.8292   -3.2042    0.0000 C   0  0  0  0  0  0  0  0  0  0  0  0
    0.5042   -3.1917    0.0000 C   0  0  0  0  0  0  0  0  0  0  0  0
    1.5667   -5.4125    0.0000 C   0  0  0  0  0  0  0  0  0  0  0  0
    0.7417   -5.4042    0.0000 C   0  0  0  0  0  0  0  0  0  0  0  0
    1.5667   -3.9792    0.0000 C   0  0  0  0  0  0  0  0  0  0  0  0
    0.7542   -3.9792    0.0000 C   0  0  0  0  0  0  0  0  0  0  0  0
    1.9875   -4.6917    0.0000 C   0  0  0  0  0  0  0  0  0  0  0  0
    0.3375   -4.6917    0.0000 C   0  0  0  0  0  0  0  0  0  0  0  0
    1.8042   -6.7292    0.0000 C   0  0  0  0  0  0  0  0  0  0  0  0
    0.4750   -6.8667    0.0000 C   0  0  0  0  0  0  0  0  0  0  0  0
   -0.5625   -5.6667    0.0000 C   0  0  0  0  0  0  0  0  0  0  0  0
    2.8792   -5.6917    0.0000 C   0  0  0  0  0  0  0  0  0  0  0  0
    1.1375   -6.2500    0.0000 O   0  0  0  0  0  0  0  0  0  0  0  0
    2.7917   -4.8667    0.0000 C   0  0  0  0  0  0  0  0  0  0  0  0
   -0.4708   -4.8542    0.0000 C   0  0  0  0  0  0  0  0  0  0  0  0
   -0.2833   -2.9375    0.0000 O   0  0  0  0  0  0  0  0  0  0  0  0
    2.6167   -2.9500    0.0000 O   0  0  0  0  0  0  0  0  0  0  0  0
    1.5500   -7.5167    0.0000 C   0  0  0  0  0  0  0  0  0  0  0  0
    0.7250   -7.5167    0.0000 C   0  0  0  0  0  0  0  0  0  0  0  0
    1.1750   -1.8917    0.0000 C   0  0  0  0  0  0  0  0  0  0  0  0
   -1.3125   -5.9917    0.0000 C   0  0  0  0  0  0  0  0  0  0  0  0
    3.6292   -6.0375    0.0000 C   0  0  0  0  0  0  0  0  0  0  0  0
    3.4667   -4.3792    0.0000 C   0  0  0  0  0  0  0  0  0  0  0  0
   -1.1208   -4.3667    0.0000 C   0  0  0  0  0  0  0  0  0  0  0  0
   -1.8750   -4.6917    0.0000 C   0  0  0  0  0  0  0  0  0  0  0  0
   -1.9708   -5.5042    0.0000 C   0  0  0  0  0  0  0  0  0  0  0  0
    4.3042   -5.5542    0.0000 C   0  0  0  0  0  0  0  0  0  0  0  0
    4.2167   -4.7250    0.0000 C   0  0  0  0  0  0  0  0  0  0  0  0
   -0.0250   -7.5250    0.0000 H   0  0  0  0  0  0  0  0  0  0  0  0
    2.4917   -7.1875    0.0000 H   0  0  0  0  0  0  0  0  0  0  0  0
  2  7  1  0
  3  4  1  0
  4  8  1  0
  5  9  1  0
  6  1  1  0
  7  6  2  0
  8 10  2  0
  9  8  1  0
 10  6  1  0
 11  7  1  0
 12  1  1  0
 13 16  1  0
 14  2  1  0
 15  1  1  0
 16 12  1  0
 17 15  2  0
 18 11  1  0
 19  5  2  0
 20  4  2  0
 21 12  1  0
 22 21  1  0
 23  3  1  0
 24 14  1  0
 25 15  1  0
 26 17  1  0
 27 18  1  0
 28 27  2  0
 29 24  2  0
 30 25  2  0
 31 30  1  0
 13 32  1  6
 12 33  1  6
 10 17  1  0
 22 13  1  0
 13  2  1  0
 11  9  2  0
 26 31  2  0
 18 14  2  0
  5  3  1  0
 29 28  1  0
M  END
> <chembl_id>
CHEMBL289853

> <chembl_pref_name>
INDOLOCARBAZOLE COMPOUND

$$$$

     RDKit          2D

 23 26  0  0  0  0  0  0  0  0999 V2000
   -1.2375   -0.6417    0.0000 C   0  0  0  0  0  0  0  0  0  0  0  0
   -0.0583   -0.6417    0.0000 N   0  0  0  0  0  0  0  0  0  0  0  0
   -1.7833    0.4000    0.0000 N   0  0  0  0  0  0  0  0  0  0  0  0
    0.7000   -1.5667    0.0000 C   0  0  0  0  0  0  0  0  0  0  0  0
   -1.9458   -1.5792    0.0000 C   0  0  0  0  0  0  0  0  0  0  0  0
   -1.6625   -2.7417    0.0000 C   0  0  0  0  0  0  0  0  0  0  0  0
    0.4542   -2.7250    0.0000 C   0  0  0  0  0  0  0  0  0  0  0  0
   -0.5958   -3.2542    0.0000 C   0  0  0  0  0  0  0  0  0  0  0  0
    1.8667   -1.1875    0.0000 C   0  0  0  0  0  0  0  0  0  0  0  0
   -2.8833    2.5333    0.0000 N   0  0  0  0  0  0  0  0  0  0  0  0
   -2.9583    0.4375    0.0000 C   0  0  0  0  0  0  0  0  0  0  0  0
   -1.1458    1.4083    0.0000 C   0  0  0  0  0  0  0  0  0  0  0  0
    1.3792   -3.5250    0.0000 C   0  0  0  0  0  0  0  0  0  0  0  0
    2.7500   -1.9875    0.0000 C   0  0  0  0  0  0  0  0  0  0  0  0
   -3.5208    1.5000    0.0000 C   0  0  0  0  0  0  0  0  0  0  0  0
   -1.7083    2.4833    0.0000 C   0  0  0  0  0  0  0  0  0  0  0  0
    2.5042   -3.1417    0.0000 C   0  0  0  0  0  0  0  0  0  0  0  0
    3.8792   -1.6167    0.0000 F   0  0  0  0  0  0  0  0  0  0  0  0
   -3.1083   -1.2542    0.0000 C   0  0  0  0  0  0  0  0  0  0  0  0
   -2.5458   -3.5917    0.0000 C   0  0  0  0  0  0  0  0  0  0  0  0
   -3.4208    3.5958    0.0000 C   0  0  0  0  0  0  0  0  0  0  0  0
   -3.9750   -2.0792    0.0000 C   0  0  0  0  0  0  0  0  0  0  0  0
   -3.6958   -3.2375    0.0000 C   0  0  0  0  0  0  0  0  0  0  0  0
  2  1  2  0
  3  1  1  0
  4  2  1  0
  5  1  1  0
  6  5  2  0
  7  4  2  0
  8  6  1  0
  9  4  1  0
 10 16  1  0
 11  3  1  0
 12  3  1  0
 13  7  1  0
 14  9  2  0
 15 11  1  0
 16 12  1  0
 17 14  1  0
 18 14  1  0
 19  5  1  0
 20  6  1  0
 21 10  1  0
 22 19  2  0
 23 22  1  0
  8  7  1  0
 15 10  1  0
 20 23  2  0
 13 17  2  0
M  END
> <chembl_id>
CHEMBL63756

> <chembl_pref_name>
FLUPERLAPINE

$$$$

     RDKit          2D

 14 14  0  0  0  0  0  0  0  0999 V2000
    2.1292    2.5958    0.0000 C   0  0  0  0  0  0  0  0  0  0  0  0
   -2.1375   -2.4792    0.0000 C   0  0  0  0  0  0  0  0  0  0  0  0
    2.1292    1.3208    0.0000 N   0  0  0  0  0  0  0  0  0  0  0  0
   -2.1458   -1.2250    0.0000 O   0  0  0  0  0  0  0  0  0  0  0  0
    1.0792    3.4000    0.0000 O   0  0  0  0  0  0  0  0  0  0  0  0
   -1.0750   -3.2792    0.0000 O   0  0  0  0  0  0  0  0  0  0  0  0
    1.0875    0.6875    0.0000 C   0  0  0  0  0  0  0  0  0  0  0  0
   -1.0833   -0.5792    0.0000 C   0  0  0  0  0  0  0  0  0  0  0  0
   -0.0125    1.3208    0.0000 C   0  0  0  0  0  0  0  0  0  0  0  0
    1.0875   -0.5042    0.0000 C   0  0  0  0  0  0  0  0  0  0  0  0
    0.0000   -1.1792    0.0000 C   0  0  0  0  0  0  0  0  0  0  0  0
   -1.0958    0.6750    0.0000 C   0  0  0  0  0  0  0  0  0  0  0  0
    3.1792    3.1708    0.0000 C   0  0  0  0  0  0  0  0  0  0  0  0
   -3.1875   -3.0917    0.0000 C   0  0  0  0  0  0  0  0  0  0  0  0
  2  4  1  0
  3  1  1  0
  4  8  1  0
  5  1  2  0
  6  2  2  0
  7  3  1  0
  8 11  1  0
  9  7  2  0
 10  7  1  0
 11 10  2  0
 12  9  1  0
 13  1  1  0
 14  2  1  0
 12  8  2  0
M  END
> <chembl_id>
CHEMBL2106185

> <chembl_pref_name>
DIACETAMATE

$$$$

     RDKit          2D

 17 19  0  0  0  0  0  0  0  0999 V2000
   -0.5708   -1.7417    0.0000 N   0  0  0  0  0  0  0  0  0  0  0  0
   -0.5708    0.5083    0.0000 C   0  0  0  0  0  0  0  0  0  0  0  0
    0.2042   -0.6167    0.0000 C   0  0  0  0  0  0  0  0  0  0  0  0
   -1.9208    0.0500    0.0000 C   0  0  0  0  0  0  0  0  0  0  0  0
   -1.9208   -1.3375    0.0000 C   0  0  0  0  0  0  0  0  0  0  0  0
    3.8500   -1.1042    0.0000 N   0  0  0  0  0  0  0  0  0  0  0  0
   -0.1750    1.8333    0.0000 C   0  0  0  0  0  0  0  0  0  0  0  0
    1.1417    2.0833    0.0000 C   0  0  0  0  0  0  0  0  0  0  0  0
    2.0542    1.0250    0.0000 C   0  0  0  0  0  0  0  0  0  0  0  0
   -3.1208    0.7500    0.0000 C   0  0  0  0  0  0  0  0  0  0  0  0
    4.3417    0.1750    0.0000 C   0  0  0  0  0  0  0  0  0  0  0  0
    2.4417   -1.3375    0.0000 C   0  0  0  0  0  0  0  0  0  0  0  0
   -3.1250   -2.0417    0.0000 C   0  0  0  0  0  0  0  0  0  0  0  0
    3.4542    1.2625    0.0000 C   0  0  0  0  0  0  0  0  0  0  0  0
    1.6000   -0.2292    0.0000 C   0  0  0  0  0  0  0  0  0  0  0  0
   -4.3458    0.0458    0.0000 C   0  0  0  0  0  0  0  0  0  0  0  0
   -4.3458   -1.3750    0.0000 C   0  0  0  0  0  0  0  0  0  0  0  0
  2  3  2  0
  3  1  1  0
  4  5  2  0
  5  1  1  0
  6 12  1  0
  7  2  1  0
  8  7  1  0
  9  8  1  0
 10  4  1  0
 11 14  1  0
 12 15  1  0
 13  5  1  0
 14  9  1  0
 15  9  1  0
 16 17  1  0
 17 13  2  0
  4  2  1  0
 10 16  2  0
 11  6  1  0
M  END
> <chembl_id>
CHEMBL276520

> <chembl_pref_name>
INDALPINE

$$$$

     RDKit          2D

 17 18  0  0  0  0  0  0  0  0999 V2000
   -0.0818   -1.0050    0.0000 C   0  0  0  0  0  0  0  0  0  0  0  0
    0.6327   -0.5924    0.0000 C   0  0  0  0  0  0  0  0  0  0  0  0
    0.6327    0.2326    0.0000 C   0  0  0  0  0  0  0  0  0  0  0  0
   -0.0818    0.6451    0.0000 C   0  0  0  0  0  0  0  0  0  0  0  0
   -0.7963    0.2326    0.0000 C   0  0  0  0  0  0  0  0  0  0  0  0
   -0.7963   -0.5924    0.0000 C   0  0  0  0  0  0  0  0  0  0  0  0
   -1.5108    1.4701    0.0000 C   0  0  0  0  0  0  0  0  0  0  0  0
   -0.7963    1.8826    0.0000 C   0  0  0  0  0  0  0  0  0  0  0  0
   -0.0818    1.4701    0.0000 O   0  0  0  0  0  0  0  0  0  0  0  0
   -2.2252    1.8826    0.0000 O   0  0  0  0  0  0  0  0  0  0  0  0
   -0.0818   -1.8300    0.0000 Cl  0  0  0  0  0  0  0  0  0  0  0  0
    1.4173   -0.8474    0.0000 C   0  0  0  0  0  0  0  0  0  0  0  0
    1.9022   -0.1800    0.0000 O   0  0  0  0  0  0  0  0  0  0  0  0
    1.4173    0.4875    0.0000 B   0  0  0  0  0  0  0  0  0  0  0  0
    1.6723    1.2721    0.0000 O   0  0  0  0  0  0  0  0  0  0  0  0
    1.6722   -1.6320    0.0000 C   0  0  0  0  0  0  0  0  0  0  0  0
    2.4344   -1.9477    0.0000 N   0  0  0  0  0  0  0  0  0  0  0  0
  1  2  1  0
  2  3  2  0
  3  4  1  0
  4  5  2  0
  5  6  1  0
  1  6  2  0
  7  8  1  0
  8  9  1  0
  4  9  1  0
 10  7  1  0
  1 11  1  0
 12 13  1  0
 13 14  1  0
  2 12  1  0
  3 14  1  0
 14 15  1  0
 12 16  1  6
 16 17  1  0
M  END
> <chembl_id>
CHEMBL4116378

> <chembl_pref_name>
GANFEBOROLE

$$$$

     RDKit          2D

 20 19  0  0  0  0  0  0  0  0999 V2000
    5.6411   -3.6767    0.0000 C   0  0  0  0  0  0  0  0  0  0  0  0
    6.4703   -3.6767    0.0000 C   0  0  0  0  0  0  0  0  0  0  0  0
    6.8828   -4.3884    0.0000 C   0  0  0  0  0  0  0  0  0  0  0  0
    7.7078   -4.3884    0.0000 C   0  0  0  0  0  0  0  0  0  0  0  0
    8.1203   -5.1043    0.0000 C   0  0  0  0  0  0  0  0  0  0  0  0
    8.9453   -5.1043    0.0000 C   0  0  0  0  0  0  0  0  0  0  0  0
    9.3578   -5.8201    0.0000 C   0  0  0  0  0  0  0  0  0  0  0  0
   10.1828   -5.8201    0.0000 O   0  0  0  0  0  0  0  0  0  0  0  0
    8.9453   -6.5318    0.0000 O   0  0  0  0  0  0  0  0  0  0  0  0
    5.2286   -4.3884    0.0000 C   0  0  0  0  0  0  0  0  0  0  0  0
    4.4036   -4.3884    0.0000 C   0  0  0  0  0  0  0  0  0  0  0  0
    3.9911   -5.1043    0.0000 C   0  0  0  0  0  0  0  0  0  0  0  0
    4.4036   -5.8201    0.0000 C   0  0  0  0  0  0  0  0  0  0  0  0
    5.2286   -5.8201    0.0000 C   0  0  0  0  0  0  0  0  0  0  0  0
    5.6411   -6.5318    0.0000 C   0  0  0  0  0  0  0  0  0  0  0  0
    5.2286   -7.2476    0.0000 C   0  0  0  0  0  0  0  0  0  0  0  0
    5.6411   -7.9635    0.0000 C   0  0  0  0  0  0  0  0  0  0  0  0
    6.4703   -7.9635    0.0000 C   0  0  0  0  0  0  0  0  0  0  0  0
    6.8828   -8.6752    0.0000 C   0  0  0  0  0  0  0  0  0  0  0  0
    7.7078   -8.6752    0.0000 C   0  0  0  0  0  0  0  0  0  0  0  0
  1  2  1  0
  2  3  1  0
  3  4  1  0
  4  5  1  0
  5  6  1  0
  6  7  1  0
  7  8  2  0
  7  9  1  0
  1 10  1  0
 10 11  1  0
 11 12  2  0
 12 13  1  0
 13 14  1  0
 14 15  2  0
 15 16  1  0
 16 17  1  0
 17 18  1  0
 18 19  1  0
 19 20  1  0
M  END
> <chembl_id>
CHEMBL267476

> <chembl_pref_name>
LINOLEIC ACID

$$$$

     RDKit          2D

 22 23  0  0  0  0  0  0  0  0999 V2000
   -1.4833    0.9083    0.0000 C   0  0  0  0  0  0  0  0  0  0  0  0
    0.4167    0.9208    0.0000 N   0  0  0  0  0  0  0  0  0  0  0  0
   -1.0208    0.1000    0.0000 C   0  0  0  0  0  0  0  0  0  0  0  0
   -0.9958    1.7583    0.0000 C   0  0  0  0  0  0  0  0  0  0  0  0
   -1.7833    0.0208    0.0000 C   0  0  0  0  0  0  0  0  0  0  0  0
   -2.4375    0.9208    0.0000 C   0  0  0  0  0  0  0  0  0  0  0  0
   -2.4833   -0.5167    0.0000 O   0  0  0  0  0  0  0  0  0  0  0  0
    0.0292    1.7458    0.0000 C   0  0  0  0  0  0  0  0  0  0  0  0
    0.0000    0.0875    0.0000 C   0  0  0  0  0  0  0  0  0  0  0  0
    0.9042    0.9083    0.0000 C   0  0  0  0  0  0  0  0  0  0  0  0
    4.2375   -1.5167    0.0000 O   0  0  0  0  0  0  0  0  0  0  0  0
    2.3167    0.0875    0.0000 O   0  0  0  0  0  0  0  0  0  0  0  0
   -1.0750   -0.6667    0.0000 C   0  0  0  0  0  0  0  0  0  0  0  0
   -2.9083    0.0833    0.0000 C   0  0  0  0  0  0  0  0  0  0  0  0
   -2.9083    1.7375    0.0000 C   0  0  0  0  0  0  0  0  0  0  0  0
    3.7542   -0.7042    0.0000 C   0  0  0  0  0  0  0  0  0  0  0  0
    1.3667    0.0875    0.0000 C   0  0  0  0  0  0  0  0  0  0  0  0
    2.8000   -0.7250    0.0000 C   0  0  0  0  0  0  0  0  0  0  0  0
   -1.1125   -1.5625    0.0000 C   0  0  0  0  0  0  0  0  0  0  0  0
   -3.8583    0.0833    0.0000 C   0  0  0  0  0  0  0  0  0  0  0  0
   -3.8583    1.7375    0.0000 C   0  0  0  0  0  0  0  0  0  0  0  0
   -4.3458    0.9208    0.0000 C   0  0  0  0  0  0  0  0  0  0  0  0
  2  8  1  0
  3  1  1  0
  4  1  1  0
  5  1  1  0
  6  1  1  0
  7  5  2  0
  8  4  1  0
  9  3  1  0
 10  2  1  0
 11 16  1  0
 12 17  1  0
 13  5  1  0
 14  6  1  0
 15  6  2  0
 16 18  1  0
 17 10  1  0
 18 12  1  0
 19 13  1  0
 20 14  2  0
 21 15  1  0
 22 21  2  0
  9  2  1  0
 20 22  1  0
M  END
> <chembl_id>
CHEMBL2105053

> <chembl_pref_name>
DROXYPROPINE

$$$$

     RDKit          2D

 18 19  0  0  1  0  0  0  0  0999 V2000
    4.2847   -8.6381    0.0000 C   0  0  0  0  0  0  0  0  0  0  0  0
    4.9996   -8.2256    0.0000 C   0  0  0  0  0  0  0  0  0  0  0  0
    4.9996   -7.4006    0.0000 C   0  0  0  0  0  0  0  0  0  0  0  0
    4.2847   -6.9881    0.0000 C   0  0  0  0  0  0  0  0  0  0  0  0
    3.5697   -7.4006    0.0000 C   0  0  0  0  0  0  0  0  0  0  0  0
    3.5697   -8.2256    0.0000 O   0  0  0  0  0  0  0  0  0  0  0  0
    4.2847   -6.1631    0.0000 C   0  0  0  0  0  0  0  0  0  0  0  0
    4.9996   -5.7506    0.0000 O   0  0  0  0  0  0  0  0  0  0  0  0
    3.5697   -5.7506    0.0000 O   0  0  0  0  0  0  0  0  0  0  0  0
    3.5697   -4.9256    0.0000 C   0  0  0  0  0  0  0  0  0  0  0  0
    5.7697   -7.1256    0.0000 C   0  0  0  0  0  0  0  0  0  0  0  0
    6.2647   -7.8131    0.0000 C   0  0  0  0  0  0  0  0  0  0  0  0
    5.7697   -8.4731    0.0000 C   0  0  0  0  0  0  0  0  0  0  0  0
    6.0172   -9.2430    0.0000 C   0  0  0  0  0  0  0  0  0  0  0  0
    6.8422   -9.4356    0.0000 O   0  0  0  0  0  0  0  0  0  0  0  0
    5.0821   -6.5756    0.0000 H   0  0  0  0  0  0  0  0  0  0  0  0
    5.0821   -9.0231    0.0000 H   0  0  0  0  0  0  0  0  0  0  0  0
    4.2847   -9.4631    0.0000 O   0  0  0  0  0  0  0  0  0  0  0  0
  1  2  1  0
  2  3  1  0
  3  4  1  0
  4  5  2  0
  5  6  1  0
  1  6  1  0
  4  7  1  0
  7  8  2  0
  7  9  1  0
  9 10  1  0
 11  3  1  0
 11 12  1  0
 12 13  2  0
 13  2  1  0
 13 14  1  0
 14 15  1  0
  3 16  1  6
  2 17  1  6
  1 18  1  6
M  END
> <chembl_id>
CHEMBL459016

> <chembl_pref_name>
GENIPIN

$$$$

     RDKit          2D

 63 69  0  0  1  0  0  0  0  0999 V2000
    7.8542   -4.9542    0.0000 C   0  0  0  0  0  0  0  0  0  0  0  0
    8.5667   -6.1875    0.0000 C   0  0  0  0  0  0  0  0  0  0  0  0
    6.2875   -6.4000    0.0000 C   0  0  0  0  0  0  0  0  0  0  0  0
    7.8542   -5.7792    0.0000 C   0  0  0  0  0  0  0  0  0  0  0  0
    6.2292   -4.9750    0.0000 C   0  0  0  0  0  0  0  0  0  0  0  0
    6.6667   -5.6667    0.0000 C   0  0  0  0  0  0  0  0  0  0  0  0
    7.4417   -4.2417    0.0000 C   0  0  0  0  0  0  0  0  0  0  0  0
    6.7250   -7.0917    0.0000 C   0  0  0  0  0  0  0  0  0  0  0  0
    6.6167   -4.2417    0.0000 C   0  0  0  0  0  0  0  0  0  0  0  0
    5.4042   -5.0042    0.0000 C   0  0  0  0  0  0  0  0  0  0  0  0
    5.4625   -6.4292    0.0000 C   0  0  0  0  0  0  0  0  0  0  0  0
    5.0167   -5.7292    0.0000 C   0  0  0  0  0  0  0  0  0  0  0  0
    3.4792   -5.3500    0.0000 C   0  0  0  0  0  0  0  0  0  0  0  0
    8.5667   -4.5417    0.0000 C   0  0  0  0  0  0  0  0  0  0  0  0
    2.7625   -5.7542    0.0000 C   0  0  0  0  0  0  0  0  0  0  0  0
    9.2792   -5.7792    0.0000 C   0  0  0  0  0  0  0  0  0  0  0  0
    2.0500   -4.5167    0.0000 N   0  0  0  0  0  0  0  0  0  0  0  0
    6.6625   -7.9167    0.0000 O   0  0  0  0  0  0  0  0  0  0  0  0
    2.0500   -5.3417    0.0000 C   0  0  0  0  0  0  0  0  0  0  0  0
    1.3292   -4.1042    0.0000 C   0  0  0  0  0  0  0  0  0  0  0  0
    5.9167   -8.2792    0.0000 C   0  0  0  0  0  0  0  0  0  0  0  0
    4.1917   -5.7625    0.0000 O   0  0  0  0  0  0  0  0  0  0  0  0
    8.9750   -6.9000    0.0000 C   0  0  0  0  0  0  0  0  0  0  0  0
    9.2792   -4.9542    0.0000 C   0  0  0  0  0  0  0  0  0  0  0  0
    8.3500   -6.9792    0.0000 O   0  0  0  0  0  0  0  0  0  0  0  0
    9.6875   -6.4917    0.0000 O   0  0  0  0  0  0  0  0  0  0  0  0
    6.2000   -3.5292    0.0000 O   0  0  0  0  0  0  0  0  0  0  0  0
    8.9292   -7.5667    0.0000 C   0  0  0  0  0  0  0  0  0  0  0  0
    6.6125   -2.8125    0.0000 C   0  0  0  0  0  0  0  0  0  0  0  0
    7.8542   -3.5292    0.0000 O   0  0  0  0  0  0  0  0  0  0  0  0
    3.4792   -4.5250    0.0000 O   0  0  0  0  0  0  0  0  0  0  0  0
    0.6167   -4.5167    0.0000 O   0  0  0  0  0  0  0  0  0  0  0  0
    5.2375   -7.8125    0.0000 O   0  0  0  0  0  0  0  0  0  0  0  0
    5.8667   -7.1125    0.0000 O   0  0  0  0  0  0  0  0  0  0  0  0
    1.3375   -3.2792    0.0000 C   0  0  0  0  0  0  0  0  0  0  0  0
    5.8542   -9.1000    0.0000 C   0  0  0  0  0  0  0  0  0  0  0  0
    1.3292   -5.7542    0.0000 C   0  0  0  0  0  0  0  0  0  0  0  0
    9.7292   -7.3542    0.0000 O   0  0  0  0  0  0  0  0  0  0  0  0
    7.4375   -2.8042    0.0000 O   0  0  0  0  0  0  0  0  0  0  0  0
    7.8500   -4.1292    0.0000 C   0  0  0  0  0  0  0  0  0  0  0  0
    2.7625   -6.5792    0.0000 O   0  0  0  0  0  0  0  0  0  0  0  0
    8.5667   -3.7167    0.0000 O   0  0  0  0  0  0  0  0  0  0  0  0
    7.0750   -4.9542    0.0000 C   0  0  0  0  0  0  0  0  0  0  0  0
    7.4625   -5.8792    0.0000 C   0  0  0  0  0  0  0  0  0  0  0  0
    4.9750   -4.3042    0.0000 C   0  0  0  0  0  0  0  0  0  0  0  0
    6.1917   -2.1000    0.0000 C   0  0  0  0  0  0  0  0  0  0  0  0
    8.7125   -8.3625    0.0000 C   0  0  0  0  0  0  0  0  0  0  0  0
    0.6250   -2.8750    0.0000 C   0  0  0  0  0  0  0  0  0  0  0  0
    6.5417   -9.5625    0.0000 C   0  0  0  0  0  0  0  0  0  0  0  0
    5.1167   -9.4542    0.0000 C   0  0  0  0  0  0  0  0  0  0  0  0
    2.0500   -2.8750    0.0000 C   0  0  0  0  0  0  0  0  0  0  0  0
    0.6167   -5.3417    0.0000 C   0  0  0  0  0  0  0  0  0  0  0  0
    1.3375   -6.5792    0.0000 C   0  0  0  0  0  0  0  0  0  0  0  0
    2.0542   -2.0500    0.0000 C   0  0  0  0  0  0  0  0  0  0  0  0
    0.6167   -2.0542    0.0000 C   0  0  0  0  0  0  0  0  0  0  0  0
    0.6250   -6.9917    0.0000 C   0  0  0  0  0  0  0  0  0  0  0  0
    5.0542  -10.2792    0.0000 C   0  0  0  0  0  0  0  0  0  0  0  0
    6.4792  -10.3792    0.0000 C   0  0  0  0  0  0  0  0  0  0  0  0
   -0.0958   -5.7542    0.0000 C   0  0  0  0  0  0  0  0  0  0  0  0
    1.3375   -1.6375    0.0000 C   0  0  0  0  0  0  0  0  0  0  0  0
   -0.0958   -6.5792    0.0000 C   0  0  0  0  0  0  0  0  0  0  0  0
    5.7375  -10.7417    0.0000 C   0  0  0  0  0  0  0  0  0  0  0  0
    7.8500   -6.6042    0.0000 H   0  0  0  0  0  0  0  0  0  0  0  0
  2  4  1  0
  3  8  1  0
  4  1  1  0
  5  9  1  0
  6  5  1  0
  7  1  1  0
  8  4  1  0
  9  7  1  0
 10  5  2  0
 11  3  1  0
 12 10  1  0
 13 22  1  0
 14  1  1  0
 15 13  1  0
 16 24  1  0
 19 17  1  6
  8 18  1  6
 19 15  1  0
 20 17  1  0
 21 18  1  0
 12 22  1  6
  2 23  1  1
 24 14  1  0
  2 25  1  6
 16 26  1  1
  9 27  1  1
 28 25  1  0
 29 27  1  0
 30  7  2  0
 31 13  2  0
 32 20  2  0
 33 21  2  0
  3 34  1  1
 35 20  1  0
 36 21  1  0
 37 19  1  0
 38 28  2  0
 39 29  2  0
  1 40  1  1
 15 41  1  6
 14 42  1  1
  6 43  1  0
  6 44  1  0
 45 10  1  0
 46 29  1  0
 47 28  1  0
 48 35  1  0
 49 36  1  0
 50 36  2  0
 51 35  2  0
 52 37  2  0
 53 37  1  0
 54 51  1  0
 55 48  2  0
 56 53  2  0
 57 50  1  0
 58 49  2  0
 59 52  1  0
 60 54  2  0
 61 56  1  0
 62 57  2  0
  4 63  1  6
 16  2  1  0
 23 26  1  0
  3  6  1  0
 11 12  1  0
 58 62  1  0
 59 61  2  0
 55 60  1  0
M  END
> <chembl_id>
CHEMBL428647

> <chembl_pref_name>
PACLITAXEL

$$$$

     RDKit          2D

 32 36  0  0  1  0  0  0  0  0999 V2000
    0.4000   -1.6542    0.0000 C   0  0  0  0  0  0  0  0  0  0  0  0
    0.4542    2.1208    0.0000 C   0  0  0  0  0  0  0  0  0  0  0  0
    1.2917   -1.9417    0.0000 C   0  0  0  0  0  0  0  0  0  0  0  0
    1.2500   -0.4250    0.0000 C   0  0  0  0  0  0  0  0  0  0  0  0
    1.2500    1.6708    0.0000 C   0  0  0  0  0  0  0  0  0  0  0  0
    0.4000   -0.7167    0.0000 C   0  0  0  0  0  0  0  0  0  0  0  0
    1.8250   -1.1917    0.0000 O   0  0  0  0  0  0  0  0  0  0  0  0
   -0.3375    1.6708    0.0000 C   0  0  0  0  0  0  0  0  0  0  0  0
   -1.1333    2.1208    0.0000 C   0  0  0  0  0  0  0  0  0  0  0  0
    0.4542    3.0208    0.0000 C   0  0  0  0  0  0  0  0  0  0  0  0
    2.0417    2.1208    0.0000 N   0  0  0  0  0  0  0  0  0  0  0  0
   -0.4083   -2.1250    0.0000 C   0  0  0  0  0  0  0  0  0  0  0  0
   -1.1333    3.0208    0.0000 C   0  0  0  0  0  0  0  0  0  0  0  0
   -0.3375    3.4833    0.0000 C   0  0  0  0  0  0  0  0  0  0  0  0
   -0.4083   -0.2417    0.0000 C   0  0  0  0  0  0  0  0  0  0  0  0
   -2.7208    2.1208    0.0000 O   0  0  0  0  0  0  0  0  0  0  0  0
   -1.9333    3.4833    0.0000 O   0  0  0  0  0  0  0  0  0  0  0  0
    1.6042   -2.8667    0.0000 O   0  0  0  0  0  0  0  0  0  0  0  0
   -1.2250   -1.6542    0.0000 C   0  0  0  0  0  0  0  0  0  0  0  0
    1.2500    3.4833    0.0000 C   0  0  0  0  0  0  0  0  0  0  0  0
   -2.7208    3.0208    0.0000 C   0  0  0  0  0  0  0  0  0  0  0  0
    2.0417    3.0208    0.0000 C   0  0  0  0  0  0  0  0  0  0  0  0
   -1.2250   -0.7167    0.0000 C   0  0  0  0  0  0  0  0  0  0  0  0
   -0.3375    0.7208    0.0000 O   0  0  0  0  0  0  0  0  0  0  0  0
   -0.3958   -3.1000    0.0000 O   0  0  0  0  0  0  0  0  0  0  0  0
   -2.0625   -2.1542    0.0000 O   0  0  0  0  0  0  0  0  0  0  0  0
    2.8917    1.6458    0.0000 C   0  0  0  0  0  0  0  0  0  0  0  0
   -1.1333    0.2583    0.0000 C   0  0  0  0  0  0  0  0  0  0  0  0
   -1.2000   -3.5917    0.0000 C   0  0  0  0  0  0  0  0  0  0  0  0
   -2.9000   -1.6792    0.0000 C   0  0  0  0  0  0  0  0  0  0  0  0
    2.2250    0.7958    0.0000 H   0  0  0  0  0  0  0  0  0  0  0  0
    0.4542    0.4833    0.0000 H   0  0  0  0  0  0  0  0  0  0  0  0
  2  5  1  0
  3  1  1  0
  4  6  1  0
  5  4  1  0
  6  1  2  0
  7  3  1  0
  8  2  1  0
  9  8  2  0
 10  2  2  0
 11  5  1  0
 12  1  1  0
 13 14  2  0
 14 10  1  0
 15  6  1  0
 16  9  1  0
 17 13  1  0
 18  3  2  0
 19 12  2  0
 20 22  1  0
 21 16  1  0
 22 11  1  0
 23 19  1  0
 24  8  1  0
 25 12  1  0
 26 19  1  0
 27 11  1  0
 28 24  1  0
 29 25  1  0
 30 26  1  0
  5 31  1  6
  4 32  1  6
  4  7  1  0
 15 23  2  0
 10 20  1  0
  9 13  1  0
 17 21  1  0
M  END
> <chembl_id>
CHEMBL364713

> <chembl_pref_name>
NOSCAPINE

$$$$

     RDKit          2D

 17 18  0  0  0  0  0  0  0  0999 V2000
   -3.8715    1.2887    0.0000 H   0  0  0  0  0  0  0  0  0  0  0  0
   -3.1570    0.8762    0.0000 C   0  0  0  0  0  0  0  0  0  0  0  0
   -2.4426    1.2887    0.0000 C   0  0  0  0  0  0  0  0  0  0  0  0
   -2.4426    2.1137    0.0000 C   0  0  0  0  0  0  0  0  0  0  0  0
   -1.7281    0.8762    0.0000 C   0  0  0  0  0  0  0  0  0  0  0  0
   -1.0136    1.2887    0.0000 N   0  0  0  0  0  0  0  0  0  0  0  0
   -1.0136    2.1137    0.0000 C   0  0  0  0  0  0  0  0  0  0  0  0
   -1.7281    2.5262    0.0000 C   0  0  0  0  0  0  0  0  0  0  0  0
   -0.2991    0.8761    0.0000 C   0  0  0  0  0  0  0  0  0  0  0  0
    0.4154    1.2886    0.0000 C   0  0  0  0  0  0  0  0  0  0  0  0
   -0.2991    2.5261    0.0000 O   0  0  0  0  0  0  0  0  0  0  0  0
   -0.2991    0.0511    0.0000 C   0  0  0  0  0  0  0  0  0  0  0  0
    0.4153   -0.3614    0.0000 C   0  0  0  0  0  0  0  0  0  0  0  0
    1.1298    0.0511    0.0000 C   0  0  0  0  0  0  0  0  0  0  0  0
    1.1298    0.8761    0.0000 C   0  0  0  0  0  0  0  0  0  0  0  0
   -3.1570    0.0512    0.0000 H   0  0  0  0  0  0  0  0  0  0  0  0
   -3.8715    0.4637    0.0000 H   0  0  0  0  0  0  0  0  0  0  0  0
  1  2  1  0
  2  3  1  0
  3  4  1  0
  5  6  1  0
  6  7  1  0
  7  8  1  0
  3  5  2  0
  4  8  2  0
  9 10  1  0
  6  9  1  0
  7 11  2  0
 12 13  1  0
 13 14  2  0
 14 15  1  0
  9 12  2  0
 10 15  2  0
  2 16  1  0
  2 17  1  0
M  ISO  3   1   2  16   2  17   2
M  END
> <chembl_id>
CHEMBL5095176

> <chembl_pref_name>
DEUPIRFENIDONE

$$$$

     RDKit          2D

 21 24  0  0  0  0  0  0  0  0999 V2000
   -0.6482    4.3313    0.0000 C   0  0  0  0  0  0  0  0  0  0  0  0
   -1.0607    5.0457    0.0000 C   0  0  0  0  0  0  0  0  0  0  0  0
   -1.8857    5.0457    0.0000 N   0  0  0  0  0  0  0  0  0  0  0  0
   -2.2982    4.3313    0.0000 C   0  0  0  0  0  0  0  0  0  0  0  0
   -1.8857    3.6168    0.0000 C   0  0  0  0  0  0  0  0  0  0  0  0
   -1.0607    3.6168    0.0000 N   0  0  0  0  0  0  0  0  0  0  0  0
   -2.4001    2.9718    0.0000 C   0  0  0  0  0  0  0  0  0  0  0  0
   -2.2165    2.1675    0.0000 C   0  0  0  0  0  0  0  0  0  0  0  0
   -1.4732    1.8095    0.0000 C   0  0  0  0  0  0  0  0  0  0  0  0
   -0.7299    2.1675    0.0000 C   0  0  0  0  0  0  0  0  0  0  0  0
   -0.5463    2.9718    0.0000 C   0  0  0  0  0  0  0  0  0  0  0  0
   -0.1252    1.6064    0.0000 C   0  0  0  0  0  0  0  0  0  0  0  0
    0.6632    1.8496    0.0000 C   0  0  0  0  0  0  0  0  0  0  0  0
    0.8468    2.6539    0.0000 C   0  0  0  0  0  0  0  0  0  0  0  0
    0.2420    3.2150    0.0000 N   0  0  0  0  0  0  0  0  0  0  0  0
   -2.8213    1.6064    0.0000 C   0  0  0  0  0  0  0  0  0  0  0  0
   -3.6097    1.8496    0.0000 C   0  0  0  0  0  0  0  0  0  0  0  0
   -3.7932    2.6539    0.0000 C   0  0  0  0  0  0  0  0  0  0  0  0
   -3.1884    3.2150    0.0000 C   0  0  0  0  0  0  0  0  0  0  0  0
   -2.2982    5.7602    0.0000 C   0  0  0  0  0  0  0  0  0  0  0  0
   -2.7107    3.6168    0.0000 H   0  0  0  0  0  0  0  0  0  0  0  0
  1  2  1  0
  6  1  1  0
  2  3  1  0
  3  4  1  0
  4  5  1  0
  5  7  1  0
  6  5  1  0
 11  6  1  0
  8  9  1  0
  9 10  1  0
 10 12  2  0
 11 10  1  0
 11 15  2  0
 12 13  1  0
 13 14  2  0
 14 15  1  0
  7 19  2  0
  7  8  1  0
  8 16  2  0
 16 17  1  0
 17 18  2  0
 18 19  1  0
  3 20  1  0
  5 21  1  6
M  END
> <chembl_id>
CHEMBL1366933

> <chembl_pref_name>
ESMIRTAZAPINE

$$$$

     RDKit          2D

 62 67  0  0  0  0  0  0  0  0999 V2000
    2.0043    3.3833    0.0000 C   0  0  0  0  0  0  0  0  0  0  0  0
    2.0659    4.2060    0.0000 N   0  0  0  0  0  0  0  0  0  0  0  0
    1.3226    2.9185    0.0000 C   0  0  0  0  0  0  0  0  0  0  0  0
    0.2329    3.9297    0.0000 S   0  0  0  0  0  0  0  0  0  0  0  0
    2.7188    2.9708    0.0000 N   0  0  0  0  0  0  0  0  0  0  0  0
    0.5343    3.1617    0.0000 C   0  0  0  0  0  0  0  0  0  0  0  0
    1.4612    4.7671    0.0000 C   0  0  0  0  0  0  0  0  0  0  0  0
    0.6454    4.6441    0.0000 C   0  0  0  0  0  0  0  0  0  0  0  0
    4.1477    2.1458    0.0000 N   0  0  0  0  0  0  0  0  0  0  0  0
    2.7188    2.1458    0.0000 C   0  0  0  0  0  0  0  0  0  0  0  0
    3.4332    3.3833    0.0000 C   0  0  0  0  0  0  0  0  0  0  0  0
    3.4332    1.7333    0.0000 C   0  0  0  0  0  0  0  0  0  0  0  0
    4.1477    2.9708    0.0000 C   0  0  0  0  0  0  0  0  0  0  0  0
    1.5062    2.1142    0.0000 C   0  0  0  0  0  0  0  0  0  0  0  0
   -0.0705    2.6005    0.0000 C   0  0  0  0  0  0  0  0  0  0  0  0
    4.8622    1.7333    0.0000 C   0  0  0  0  0  0  0  0  0  0  0  0
    8.4345    2.1458    0.0000 O   0  0  0  0  0  0  0  0  0  0  0  0
    1.7626    5.5351    0.0000 C   0  0  0  0  0  0  0  0  0  0  0  0
    0.1310    5.2891    0.0000 C   0  0  0  0  0  0  0  0  0  0  0  0
    6.2911    1.7333    0.0000 O   0  0  0  0  0  0  0  0  0  0  0  0
    7.7200    1.7333    0.0000 C   0  0  0  0  0  0  0  0  0  0  0  0
    5.5766    2.1458    0.0000 C   0  0  0  0  0  0  0  0  0  0  0  0
    7.0056    2.1458    0.0000 C   0  0  0  0  0  0  0  0  0  0  0  0
    0.9014    1.5531    0.0000 C   0  0  0  0  0  0  0  0  0  0  0  0
    0.1131    1.7962    0.0000 C   0  0  0  0  0  0  0  0  0  0  0  0
    0.4324    6.0571    0.0000 C   0  0  0  0  0  0  0  0  0  0  0  0
    1.2482    6.1801    0.0000 C   0  0  0  0  0  0  0  0  0  0  0  0
   -0.7654    0.2306    0.0000 C   0  0  0  0  0  0  0  0  0  0  0  0
   -0.7037    1.0533    0.0000 N   0  0  0  0  0  0  0  0  0  0  0  0
   -1.4470   -0.2342    0.0000 C   0  0  0  0  0  0  0  0  0  0  0  0
   -2.5368    0.7770    0.0000 S   0  0  0  0  0  0  0  0  0  0  0  0
   -0.0509   -0.1819    0.0000 N   0  0  0  0  0  0  0  0  0  0  0  0
   -2.2354    0.0090    0.0000 C   0  0  0  0  0  0  0  0  0  0  0  0
   -1.3085    1.6144    0.0000 C   0  0  0  0  0  0  0  0  0  0  0  0
   -2.1243    1.4915    0.0000 C   0  0  0  0  0  0  0  0  0  0  0  0
    1.3780   -1.0069    0.0000 N   0  0  0  0  0  0  0  0  0  0  0  0
   -0.0509   -1.0069    0.0000 C   0  0  0  0  0  0  0  0  0  0  0  0
    0.6636    0.2306    0.0000 C   0  0  0  0  0  0  0  0  0  0  0  0
    0.6636   -1.4194    0.0000 C   0  0  0  0  0  0  0  0  0  0  0  0
    1.3780   -0.1819    0.0000 C   0  0  0  0  0  0  0  0  0  0  0  0
   -1.2634   -1.0385    0.0000 C   0  0  0  0  0  0  0  0  0  0  0  0
   -2.8401   -0.5521    0.0000 C   0  0  0  0  0  0  0  0  0  0  0  0
    2.0925   -1.4194    0.0000 C   0  0  0  0  0  0  0  0  0  0  0  0
    5.6649   -1.0069    0.0000 O   0  0  0  0  0  0  0  0  0  0  0  0
   -1.0071    2.3824    0.0000 C   0  0  0  0  0  0  0  0  0  0  0  0
   -2.6386    2.1365    0.0000 C   0  0  0  0  0  0  0  0  0  0  0  0
    3.5215   -1.4194    0.0000 O   0  0  0  0  0  0  0  0  0  0  0  0
    4.9504   -1.4194    0.0000 C   0  0  0  0  0  0  0  0  0  0  0  0
    2.8070   -1.0069    0.0000 C   0  0  0  0  0  0  0  0  0  0  0  0
    4.2359   -1.0069    0.0000 C   0  0  0  0  0  0  0  0  0  0  0  0
   -1.8682   -1.5996    0.0000 C   0  0  0  0  0  0  0  0  0  0  0  0
   -2.6565   -1.3564    0.0000 C   0  0  0  0  0  0  0  0  0  0  0  0
   -2.3372    2.9044    0.0000 C   0  0  0  0  0  0  0  0  0  0  0  0
   -1.5215    3.0274    0.0000 C   0  0  0  0  0  0  0  0  0  0  0  0
   10.2613    0.7145    0.0000 C   0  0  0  0  0  0  0  0  0  0  0  0
    8.6113   -0.7145    0.0000 C   0  0  0  0  0  0  0  0  0  0  0  0
    9.8488    0.0000    0.0000 C   0  0  0  0  0  0  0  0  0  0  0  0
    9.0238    0.0000    0.0000 C   0  0  0  0  0  0  0  0  0  0  0  0
   11.0863    0.7145    0.0000 O   0  0  0  0  0  0  0  0  0  0  0  0
    9.0238   -1.4289    0.0000 O   0  0  0  0  0  0  0  0  0  0  0  0
    9.8488    1.4289    0.0000 O   0  0  0  0  0  0  0  0  0  0  0  0
    7.7863   -0.7145    0.0000 O   0  0  0  0  0  0  0  0  0  0  0  0
  2  1  2  0
  3  1  1  0
  4  6  1  0
  5  1  1  0
  6  3  1  0
  7  2  1  0
  8  7  1  0
  9 13  1  0
 10  5  1  0
 11  5  1  0
 12 10  1  0
 13 11  1  0
 14  3  2  0
 15  6  2  0
 16  9  1  0
 17 21  1  0
 18  7  2  0
 19  8  2  0
 20 22  1  0
 21 23  1  0
 22 16  1  0
 23 20  1  0
 24 14  1  0
 25 15  1  0
 26 19  1  0
 27 18  1  0
  9 12  1  0
  8  4  1  0
 24 25  2  0
 27 26  2  0
 29 28  2  0
 30 28  1  0
 31 33  1  0
 32 28  1  0
 33 30  1  0
 34 29  1  0
 35 34  1  0
 36 40  1  0
 37 32  1  0
 38 32  1  0
 39 37  1  0
 40 38  1  0
 41 30  2  0
 42 33  2  0
 43 36  1  0
 44 48  1  0
 45 34  2  0
 46 35  2  0
 47 49  1  0
 48 50  1  0
 49 43  1  0
 50 47  1  0
 51 41  1  0
 52 42  1  0
 53 46  1  0
 54 45  1  0
 36 39  1  0
 35 31  1  0
 51 52  2  0
 54 53  2  0
 56 58  1  0
 57 55  1  0
 58 57  2  0
 59 55  2  0
 60 56  2  0
 61 55  1  0
 62 56  1  0
M  END
> <chembl_id>
CHEMBL3188993

> <chembl_pref_name>
QUETIAPINE FUMARATE

$$$$

     RDKit          2D

 19 20  0  0  1  0  0  0  0  0999 V2000
    1.0875   -5.8167    0.0000 N   0  0  0  0  0  0  0  0  0  0  0  0
    0.4750   -5.4625    0.0000 C   0  0  0  0  0  0  0  0  0  0  0  0
    0.4750   -4.7542    0.0000 N   0  0  0  0  0  0  0  0  0  0  0  0
    1.0917   -6.7000    0.0000 C   0  0  0  0  0  0  0  0  0  0  0  0
    1.6958   -5.4625    0.0000 C   0  0  0  0  0  0  0  0  0  0  0  0
    1.6958   -4.7542    0.0000 C   0  0  0  0  0  0  0  0  0  0  0  0
    1.0875   -4.4000    0.0000 C   0  0  0  0  0  0  0  0  0  0  0  0
    0.5167   -6.2792    0.0000 O   0  0  0  0  0  0  0  0  0  0  0  0
    0.8750   -7.3750    0.0000 C   0  0  0  0  0  0  0  0  0  0  0  0
   -0.2583   -8.6542    0.0000 N   0  0  0  0  0  0  0  0  0  0  0  0
    0.1625   -7.3750    0.0000 C   0  0  0  0  0  0  0  0  0  0  0  0
   -0.0542   -6.7000    0.0000 C   0  0  0  0  0  0  0  0  0  0  0  0
   -0.2583   -9.3625    0.0000 N   0  0  0  0  0  0  0  0  0  0  0  0
   -0.2500   -7.9458    0.0000 N   0  0  0  0  0  0  0  0  0  0  0  0
   -0.1417   -5.8125    0.0000 O   0  0  0  0  0  0  0  0  0  0  0  0
    1.0875   -3.6917    0.0000 O   0  0  0  0  0  0  0  0  0  0  0  0
    2.3125   -4.4000    0.0000 C   0  0  0  0  0  0  0  0  0  0  0  0
   -0.6708   -6.3417    0.0000 C   0  0  0  0  0  0  0  0  0  0  0  0
   -1.2875   -6.6958    0.0000 O   0  0  0  0  0  0  0  0  0  0  0  0
  2  1  1  0
  3  2  1  0
  4  1  1  1
  5  1  1  0
  6  5  2  0
  7  6  1  0
  8  4  1  0
  9  4  1  0
 10 14  2  0
 11  9  1  0
 12  8  1  0
 13 10  2  0
 11 14  1  6
 15  2  2  0
 16  7  2  0
 17  6  1  0
 12 18  1  1
 19 18  1  0
 11 12  1  0
  7  3  1  0
M  CHG  2  10   1  13  -1
M  END
> <chembl_id>
CHEMBL129

> <chembl_pref_name>
ZIDOVUDINE

$$$$

     RDKit          2D

 26 30  0  0  1  0  0  0  0  0999 V2000
    0.8167   -0.1167    0.0000 C   0  0  0  0  0  0  0  0  0  0  0  0
   -0.0250    0.8208    0.0000 C   0  0  0  0  0  0  0  0  0  0  0  0
   -3.3708    2.2500    0.0000 N   0  0  0  0  0  0  0  0  0  0  0  0
    2.0250    0.2333    0.0000 C   0  0  0  0  0  0  0  0  0  0  0  0
    0.4167   -1.2625    0.0000 C   0  0  0  0  0  0  0  0  0  0  0  0
   -2.2333    0.8833    0.0000 C   0  0  0  0  0  0  0  0  0  0  0  0
   -2.1458    1.9708    0.0000 C   0  0  0  0  0  0  0  0  0  0  0  0
    3.1625   -1.7250    0.0000 S   0  0  0  0  0  0  0  0  0  0  0  0
   -0.7708    2.1208    0.0000 C   0  0  0  0  0  0  0  0  0  0  0  0
   -1.2833    1.4250    0.0000 C   0  0  0  0  0  0  0  0  0  0  0  0
    3.0667   -0.4792    0.0000 C   0  0  0  0  0  0  0  0  0  0  0  0
    1.0250   -2.3167    0.0000 C   0  0  0  0  0  0  0  0  0  0  0  0
    2.2417   -2.5375    0.0000 C   0  0  0  0  0  0  0  0  0  0  0  0
   -2.9500    0.6833    0.0000 C   0  0  0  0  0  0  0  0  0  0  0  0
   -2.4958   -0.4375    0.0000 C   0  0  0  0  0  0  0  0  0  0  0  0
   -4.3458    2.8333    0.0000 C   0  0  0  0  0  0  0  0  0  0  0  0
   -0.8958   -1.2625    0.0000 C   0  0  0  0  0  0  0  0  0  0  0  0
    2.1167    1.4958    0.0000 C   0  0  0  0  0  0  0  0  0  0  0  0
    4.2292    0.1000    0.0000 C   0  0  0  0  0  0  0  0  0  0  0  0
    0.3167   -3.4667    0.0000 C   0  0  0  0  0  0  0  0  0  0  0  0
   -1.5458   -2.3750    0.0000 C   0  0  0  0  0  0  0  0  0  0  0  0
    3.2792    2.0625    0.0000 C   0  0  0  0  0  0  0  0  0  0  0  0
    4.3417    1.3458    0.0000 C   0  0  0  0  0  0  0  0  0  0  0  0
   -0.8958   -3.4667    0.0000 C   0  0  0  0  0  0  0  0  0  0  0  0
   -1.6375    3.3208    0.0000 H   0  0  0  0  0  0  0  0  0  0  0  0
   -1.3583    0.1000    0.0000 H   0  0  0  0  0  0  0  0  0  0  0  0
  2  1  2  0
  3  6  1  0
  4  1  1  0
  5  1  1  0
  6 10  1  0
  7  9  1  0
  8 11  1  0
  9  2  1  0
 10  2  1  0
 11  4  2  0
 12  5  2  0
 13 12  1  0
 14  7  1  0
 15  6  1  0
 16  3  1  0
 17  5  1  0
 18  4  1  0
 19 11  1  0
 20 12  1  0
 21 17  2  0
 22 18  2  0
 23 22  1  0
 24 21  1  0
  7 25  1  6
  6 26  1  1
 13  8  1  0
  7  3  1  0
 20 24  2  0
 19 23  2  0
 14 15  1  0
M  END
> <chembl_id>
CHEMBL2107294

> <chembl_pref_name>
TROPATEPINE

$$$$

     RDKit          2D

 32 34  0  0  1  0  0  0  0  0999 V2000
    3.6667    1.7250    0.0000 N   0  0  0  0  0  0  0  0  0  0  0  0
    3.0667    2.7708    0.0000 N   0  0  0  0  0  0  0  0  0  0  0  0
    2.4625    1.7250    0.0000 C   0  0  0  0  0  0  0  0  0  0  0  0
    2.4625    2.4208    0.0000 C   0  0  0  0  0  0  0  0  0  0  0  0
    3.0667    1.3833    0.0000 C   0  0  0  0  0  0  0  0  0  0  0  0
    3.6667    2.4208    0.0000 C   0  0  0  0  0  0  0  0  0  0  0  0
    1.8542    1.3833    0.0000 N   0  0  0  0  0  0  0  0  0  0  0  0
   -2.4000    0.4875    0.0000 C   0  0  0  0  0  0  0  0  0  0  0  0
    1.8542    2.7708    0.0000 N   0  0  0  0  0  0  0  0  0  0  0  0
   -2.4333   -0.2042    0.0000 N   0  0  0  0  0  0  0  0  0  0  0  0
   -3.6250   -0.1417    0.0000 C   0  0  0  0  0  0  0  0  0  0  0  0
   -3.0458   -0.5167    0.0000 C   0  0  0  0  0  0  0  0  0  0  0  0
   -2.5458   -2.2667    0.0000 C   0  0  0  0  0  0  0  0  0  0  0  0
   -1.7708    0.8208    0.0000 C   0  0  0  0  0  0  0  0  0  0  0  0
    1.2542    1.7250    0.0000 C   0  0  0  0  0  0  0  0  0  0  0  0
   -3.5958    0.5500    0.0000 O   0  0  0  0  0  0  0  0  0  0  0  0
   -2.9833    0.8708    0.0000 O   0  0  0  0  0  0  0  0  0  0  0  0
   -1.9833   -2.7125    0.0000 O   0  0  0  0  0  0  0  0  0  0  0  0
   -4.2583   -0.4667    0.0000 O   0  0  0  0  0  0  0  0  0  0  0  0
    0.0792    1.7500    0.0000 N   0  0  0  0  0  0  0  0  0  0  0  0
   -3.1875   -2.5167    0.0000 O   0  0  0  0  0  0  0  0  0  0  0  0
    3.0667    0.6750    0.0000 N   0  0  0  0  0  0  0  0  0  0  0  0
    1.2542    2.4208    0.0000 C   0  0  0  0  0  0  0  0  0  0  0  0
    4.2625    2.7708    0.0000 N   0  0  0  0  0  0  0  0  0  0  0  0
   -3.0958   -1.2542    0.0000 C   0  0  0  0  0  0  0  0  0  0  0  0
   -1.1833    0.4375    0.0000 C   0  0  0  0  0  0  0  0  0  0  0  0
   -1.7375    1.5083    0.0000 C   0  0  0  0  0  0  0  0  0  0  0  0
    0.6542    1.3583    0.0000 C   0  0  0  0  0  0  0  0  0  0  0  0
   -2.4500   -1.5750    0.0000 C   0  0  0  0  0  0  0  0  0  0  0  0
   -0.5208    1.4583    0.0000 C   0  0  0  0  0  0  0  0  0  0  0  0
   -1.1083    1.8333    0.0000 C   0  0  0  0  0  0  0  0  0  0  0  0
   -0.5750    0.7500    0.0000 C   0  0  0  0  0  0  0  0  0  0  0  0
  2  6  2  0
  3  5  1  0
  4  2  1  0
  5  1  2  0
  6  1  1  0
  7  3  1  0
  8 14  1  0
  9  4  1  0
 10  8  1  0
 11 12  1  0
 12 10  1  1
 13 29  1  0
 14 26  1  0
 15  7  2  0
 16 11  1  0
 17  8  2  0
 18 13  1  0
 19 11  2  0
 20 28  1  0
 21 13  2  0
 22  5  1  0
 23  9  2  0
 24  6  1  0
 25 12  1  0
 26 32  2  0
 27 31  1  0
 28 15  1  0
 29 25  1  0
 30 20  1  0
 31 30  2  0
 32 30  1  0
  4  3  2  0
 23 15  1  0
 27 14  2  0
M  END
> <chembl_id>
CHEMBL376180

> <chembl_pref_name>
AMINOPTERIN

$$$$

     RDKit          2D

 18 20  0  0  0  0  0  0  0  0999 V2000
   -1.9195   -2.8446    0.0000 O   0  0  0  0  0  0  0  0  0  0  0  0
   -2.0057   -2.0241    0.0000 C   0  0  0  0  0  0  0  0  0  0  0  0
   -1.3383   -1.5392    0.0000 C   0  0  0  0  0  0  0  0  0  0  0  0
   -1.3383   -0.7142    0.0000 O   0  0  0  0  0  0  0  0  0  0  0  0
   -0.5537   -1.7941    0.0000 C   0  0  0  0  0  0  0  0  0  0  0  0
   -0.0687   -1.1267    0.0000 C   0  0  0  0  0  0  0  0  0  0  0  0
    0.7563   -1.1267    0.0000 O   0  0  0  0  0  0  0  0  0  0  0  0
   -0.5537   -0.4593    0.0000 C   0  0  0  0  0  0  0  0  0  0  0  0
   -0.2987    0.3254    0.0000 N   0  0  0  0  0  0  0  0  0  0  0  0
   -0.7836    0.9928    0.0000 C   0  0  0  0  0  0  0  0  0  0  0  0
   -0.2987    1.6602    0.0000 N   0  0  0  0  0  0  0  0  0  0  0  0
    0.4859    1.4053    0.0000 C   0  0  0  0  0  0  0  0  0  0  0  0
    1.2004    1.8178    0.0000 C   0  0  0  0  0  0  0  0  0  0  0  0
    1.2004    2.6428    0.0000 N   0  0  0  0  0  0  0  0  0  0  0  0
    1.9148    1.4053    0.0000 N   0  0  0  0  0  0  0  0  0  0  0  0
    1.9148    0.5803    0.0000 C   0  0  0  0  0  0  0  0  0  0  0  0
    1.2004    0.1678    0.0000 N   0  0  0  0  0  0  0  0  0  0  0  0
    0.4859    0.5803    0.0000 C   0  0  0  0  0  0  0  0  0  0  0  0
  2  1  1  0
  3  2  1  1
  3  4  1  0
  5  3  1  0
  8  4  1  0
  6  5  1  0
  6  7  1  6
  8  6  1  0
  8  9  1  1
 10  9  1  0
 18  9  1  0
 10 11  2  0
 12 11  1  0
 12 13  1  0
 18 12  2  0
 13 14  1  0
 13 15  2  0
 16 15  1  0
 16 17  2  0
 18 17  1  0
M  END
> <chembl_id>
CHEMBL305686

> <chembl_pref_name>
CORDYCEPIN

$$$$

     RDKit          2D

 28 30  0  0  0  0  0  0  0  0999 V2000
   -8.3859    8.4271    0.0000 C   0  0  0  0  0  0  0  0  0  0  0  0
   -7.5609    8.4271    0.0000 C   0  0  0  0  0  0  0  0  0  0  0  0
   -8.9026    9.0729    0.0000 C   0  0  0  0  0  0  0  0  0  0  0  0
   -7.9734   10.2354    0.0000 O   0  0  0  0  0  0  0  0  0  0  0  0
   -8.7151    9.8771    0.0000 C   0  0  0  0  0  0  0  0  0  0  0  0
   -7.0484    9.0729    0.0000 C   0  0  0  0  0  0  0  0  0  0  0  0
   -7.2359    9.8771    0.0000 C   0  0  0  0  0  0  0  0  0  0  0  0
   -7.9734    7.1604    0.0000 N   0  0  0  0  0  0  0  0  0  0  0  0
   -8.6401    7.6479    0.0000 C   0  0  0  0  0  0  0  0  0  0  0  0
   -7.3109    7.6479    0.0000 C   0  0  0  0  0  0  0  0  0  0  0  0
   -9.7276    8.8729    0.0000 C   0  0  0  0  0  0  0  0  0  0  0  0
   -9.3026   10.4604    0.0000 C   0  0  0  0  0  0  0  0  0  0  0  0
  -10.3109    9.4521    0.0000 C   0  0  0  0  0  0  0  0  0  0  0  0
  -10.0984   10.2479    0.0000 C   0  0  0  0  0  0  0  0  0  0  0  0
  -11.1109    9.2396    0.0000 Cl  0  0  0  0  0  0  0  0  0  0  0  0
   -7.9734    6.3354    0.0000 C   0  0  0  0  0  0  0  0  0  0  0  0
   -6.2609    8.8354    0.0000 C   0  0  0  0  0  0  0  0  0  0  0  0
   -6.6276   10.4396    0.0000 C   0  0  0  0  0  0  0  0  0  0  0  0
   -5.6526    9.3979    0.0000 C   0  0  0  0  0  0  0  0  0  0  0  0
   -5.8359   10.1979    0.0000 C   0  0  0  0  0  0  0  0  0  0  0  0
   -2.8610    8.5949    0.0000 C   0  0  0  0  0  0  0  0  0  0  0  0
   -3.6860    8.5949    0.0000 C   0  0  0  0  0  0  0  0  0  0  0  0
   -2.4485    7.8804    0.0000 C   0  0  0  0  0  0  0  0  0  0  0  0
   -4.0985    7.8804    0.0000 C   0  0  0  0  0  0  0  0  0  0  0  0
   -1.6235    7.8804    0.0000 O   0  0  0  0  0  0  0  0  0  0  0  0
   -2.8610    7.1660    0.0000 O   0  0  0  0  0  0  0  0  0  0  0  0
   -3.6860    7.1660    0.0000 O   0  0  0  0  0  0  0  0  0  0  0  0
   -4.9235    7.8804    0.0000 O   0  0  0  0  0  0  0  0  0  0  0  0
  2  1  1  0
  1  3  1  0
  4  5  1  0
  5  3  1  0
  2  6  1  0
  7  6  2  0
  8  9  1  0
  1  9  1  0
  2 10  1  0
 11  3  2  0
 12  5  2  0
 13 11  1  0
 14 12  1  0
 15 13  1  0
 16  8  1  0
 17  6  1  0
 18  7  1  0
 19 17  2  0
 20 18  2  0
  8 10  1  0
  7  4  1  0
 14 13  2  0
 19 20  1  0
 22 21  2  0
 23 21  1  0
 24 22  1  0
 25 23  2  0
 26 23  1  0
 27 24  2  0
 28 24  1  0
M  END
> <chembl_id>
CHEMBL3544974

> <chembl_pref_name>
ASENAPINE MALEATE

$$$$

     RDKit          2D

 75 82  0  0  1  0  0  0  0  0999 V2000
    2.6917   -2.9292    0.0000 N   0  0  0  0  0  0  0  0  0  0  0  0
    2.0917   -2.5792    0.0000 C   0  0  0  0  0  0  0  0  0  0  0  0
    1.4917   -1.5375    0.0000 N   0  0  0  0  0  0  0  0  0  0  0  0
    0.8875   -1.8875    0.0000 C   0  0  0  0  0  0  0  0  0  0  0  0
   -0.4208   -1.5375    0.0000 N   0  0  0  0  0  0  0  0  0  0  0  0
    2.0917   -1.8875    0.0000 C   0  0  0  0  0  0  0  0  0  0  0  0
    2.6917   -3.6167    0.0000 C   0  0  0  0  0  0  0  0  0  0  0  0
    1.4917   -3.6167    0.0000 N   0  0  0  0  0  0  0  0  0  0  0  0
   -1.5250   -3.9667    0.0000 C   0  0  0  0  0  0  0  0  0  0  0  0
   -1.0333   -1.8792    0.0000 C   0  0  0  0  0  0  0  0  0  0  0  0
    2.0917   -3.9667    0.0000 C   0  0  0  0  0  0  0  0  0  0  0  0
   -2.2125   -3.5667    0.0000 C   0  0  0  0  0  0  0  0  0  0  0  0
    0.2875   -3.6167    0.0000 C   0  0  0  0  0  0  0  0  0  0  0  0
   -2.1250   -5.0125    0.0000 C   0  0  0  0  0  0  0  0  0  0  0  0
   -2.2333   -1.8625    0.0000 N   0  0  0  0  0  0  0  0  0  0  0  0
   -1.5250   -4.6667    0.0000 N   0  0  0  0  0  0  0  0  0  0  0  0
    0.2792   -1.5375    0.0000 C   0  0  0  0  0  0  0  0  0  0  0  0
   -2.1333   -5.7042    0.0000 C   0  0  0  0  0  0  0  0  0  0  0  0
   -0.3208   -3.9667    0.0000 O   0  0  0  0  0  0  0  0  0  0  0  0
    3.2917   -2.5792    0.0000 C   0  0  0  0  0  0  0  0  0  0  0  0
    0.8875   -3.9667    0.0000 C   0  0  0  0  0  0  0  0  0  0  0  0
    3.2917   -3.9750    0.0000 C   0  0  0  0  0  0  0  0  0  0  0  0
    3.8917   -2.9292    0.0000 C   0  0  0  0  0  0  0  0  0  0  0  0
    3.8917   -3.6167    0.0000 C   0  0  0  0  0  0  0  0  0  0  0  0
   -1.6208   -1.5167    0.0000 C   0  0  0  0  0  0  0  0  0  0  0  0
   -0.9208   -3.6167    0.0000 C   0  0  0  0  0  0  0  0  0  0  0  0
    5.5250   -0.7167    0.0000 N   0  0  0  0  0  0  0  0  0  0  0  0
   -2.7333   -6.0542    0.0000 N   0  0  0  0  0  0  0  0  0  0  0  0
    4.9417   -1.6292    0.0000 C   0  0  0  0  0  0  0  0  0  0  0  0
    4.9417   -2.3250    0.0000 S   0  0  0  0  0  0  0  0  0  0  0  0
    1.4917   -2.9292    0.0000 O   0  0  0  0  0  0  0  0  0  0  0  0
    2.6917   -1.5292    0.0000 C   0  0  0  0  0  0  0  0  0  0  0  0
    0.8875   -2.5792    0.0000 O   0  0  0  0  0  0  0  0  0  0  0  0
    4.5917   -2.9292    0.0000 C   0  0  0  0  0  0  0  0  0  0  0  0
   -1.0375   -2.5750    0.0000 O   0  0  0  0  0  0  0  0  0  0  0  0
    4.8542   -1.0042    0.0000 C   0  0  0  0  0  0  0  0  0  0  0  0
   -2.8208   -3.9125    0.0000 O   0  0  0  0  0  0  0  0  0  0  0  0
    2.0917   -4.6667    0.0000 O   0  0  0  0  0  0  0  0  0  0  0  0
    0.2875   -2.9250    0.0000 O   0  0  0  0  0  0  0  0  0  0  0  0
   -1.5333   -6.0542    0.0000 C   0  0  0  0  0  0  0  0  0  0  0  0
   -2.7333   -4.6667    0.0000 O   0  0  0  0  0  0  0  0  0  0  0  0
    2.6917    0.5500    0.0000 C   0  0  0  0  0  0  0  0  0  0  0  0
    5.6417   -1.3292    0.0000 C   0  0  0  0  0  0  0  0  0  0  0  0
    2.6917    1.2458    0.0000 N   0  0  0  0  0  0  0  0  0  0  0  0
    4.5042   -3.9667    0.0000 O   0  0  0  0  0  0  0  0  0  0  0  0
    0.8875   -4.6667    0.0000 C   0  0  0  0  0  0  0  0  0  0  0  0
    3.3000    0.2000    0.0000 C   0  0  0  0  0  0  0  0  0  0  0  0
    2.0917    0.2000    0.0000 C   0  0  0  0  0  0  0  0  0  0  0  0
    6.2542   -1.6167    0.0000 C   0  0  0  0  0  0  0  0  0  0  0  0
    5.7542   -0.4750    0.0000 C   0  0  0  0  0  0  0  0  0  0  0  0
    6.1292   -0.9875    0.0000 C   0  0  0  0  0  0  0  0  0  0  0  0
    5.5500    0.0250    0.0000 C   0  0  0  0  0  0  0  0  0  0  0  0
   -0.6250   -0.8750    0.0000 C   0  0  0  0  0  0  0  0  0  0  0  0
    1.4917   -0.8417    0.0000 C   0  0  0  0  0  0  0  0  0  0  0  0
    2.6917   -0.8417    0.0000 C   0  0  0  0  0  0  0  0  0  0  0  0
    2.0917   -0.4917    0.0000 C   0  0  0  0  0  0  0  0  0  0  0  0
    3.3000   -0.4917    0.0000 C   0  0  0  0  0  0  0  0  0  0  0  0
    0.5000   -0.8792    0.0000 C   0  0  0  0  0  0  0  0  0  0  0  0
   -0.9250   -5.7000    0.0000 O   0  0  0  0  0  0  0  0  0  0  0  0
   -1.6125   -0.8250    0.0000 C   0  0  0  0  0  0  0  0  0  0  0  0
   -0.0625   -0.4667    0.0000 C   0  0  0  0  0  0  0  0  0  0  0  0
   -0.9208   -2.9250    0.0000 C   0  0  0  0  0  0  0  0  0  0  0  0
   -2.7333   -6.7500    0.0000 C   0  0  0  0  0  0  0  0  0  0  0  0
    2.0917    1.5958    0.0000 C   0  0  0  0  0  0  0  0  0  0  0  0
    3.2917    1.6000    0.0000 C   0  0  0  0  0  0  0  0  0  0  0  0
   -1.5250   -6.7500    0.0000 C   0  0  0  0  0  0  0  0  0  0  0  0
    1.4917   -5.0042    0.0000 C   0  0  0  0  0  0  0  0  0  0  0  0
    0.2792   -5.0042    0.0000 C   0  0  0  0  0  0  0  0  0  0  0  0
   -1.0083   -0.4917    0.0000 C   0  0  0  0  0  0  0  0  0  0  0  0
   -2.1333   -7.1000    0.0000 C   0  0  0  0  0  0  0  0  0  0  0  0
    0.2792   -5.7042    0.0000 C   0  0  0  0  0  0  0  0  0  0  0  0
    1.4917   -5.7042    0.0000 C   0  0  0  0  0  0  0  0  0  0  0  0
    0.8875   -6.0542    0.0000 C   0  0  0  0  0  0  0  0  0  0  0  0
    4.2417   -2.3167    0.0000 H   0  0  0  0  0  0  0  0  0  0  0  0
    0.2750   -2.2292    0.0000 H   0  0  0  0  0  0  0  0  0  0  0  0
  2  1  1  0
  3  6  1  0
  4  3  1  0
  5 17  1  0
  6  2  1  0
  7  1  1  0
  8 11  1  0
  9 26  1  0
 10  5  1  0
  7 11  1  1
 12  9  1  0
 13 21  1  0
 14 16  1  0
 15 25  1  0
  9 16  1  6
 17  4  1  0
 18 14  1  0
 19 13  1  0
 20  1  1  0
 21  8  1  0
 22  7  1  0
 23 20  1  0
 24 23  1  0
 25 10  1  0
 26 19  1  0
 27 36  1  0
 28 18  2  0
 29 30  1  6
 30 34  1  0
 31  2  2  0
  6 32  1  1
 33  4  2  0
 34 23  1  0
 35 10  2  0
 36 29  1  0
 37 12  2  0
 38 11  2  0
 39 13  2  0
 40 18  1  0
 41 14  2  0
 42 47  2  0
 43 29  1  0
 44 42  1  0
 45 24  2  0
 21 46  1  1
 47 57  1  0
 48 56  2  0
 49 43  1  0
 50 43  1  0
 51 49  1  0
 52 50  1  0
 53  5  1  0
 54  3  1  0
 55 32  1  0
 56 55  1  0
 57 55  2  0
 58 17  1  0
 59 40  1  0
 25 60  1  6
 61 58  1  0
 26 62  1  1
 63 28  1  0
 64 44  1  0
 65 44  1  0
 66 40  2  0
 67 46  1  0
 68 46  2  0
 69 60  1  0
 70 66  1  0
 71 68  1  0
 72 67  2  0
 73 71  2  0
 23 74  1  6
 17 75  1  6
 24 22  1  0
 42 48  1  0
 61 53  1  0
 52 27  1  0
 51 27  1  0
 73 72  1  0
 12 15  1  0
 70 63  2  0
M  END
> <chembl_id>
CHEMBL1200649

> <chembl_pref_name>
QUINUPRISTIN

$$$$

     RDKit          2D

 22 23  0  0  0  0  0  0  0  0999 V2000
   -3.5875    0.2000    0.0000 C   0  0  0  0  0  0  0  0  0  0  0  0
   -3.5875    0.9583    0.0000 C   0  0  0  0  0  0  0  0  0  0  0  0
   -2.9375   -0.1750    0.0000 C   0  0  0  0  0  0  0  0  0  0  0  0
   -2.9375    1.3375    0.0000 C   0  0  0  0  0  0  0  0  0  0  0  0
   -2.2833    0.2000    0.0000 C   0  0  0  0  0  0  0  0  0  0  0  0
   -0.3083   -0.1667    0.0000 N   0  0  0  0  0  0  0  0  0  0  0  0
    3.6250   -0.9167    0.0000 C   0  0  0  0  0  0  0  0  0  0  0  0
    2.3167   -0.1542    0.0000 C   0  0  0  0  0  0  0  0  0  0  0  0
   -4.2500   -0.1792    0.0000 O   0  0  0  0  0  0  0  0  0  0  0  0
   -2.2833    0.9583    0.0000 C   0  0  0  0  0  0  0  0  0  0  0  0
   -4.2500    1.3458    0.0000 O   0  0  0  0  0  0  0  0  0  0  0  0
    1.6625    0.2208    0.0000 C   0  0  0  0  0  0  0  0  0  0  0  0
    2.9750   -1.2917    0.0000 C   0  0  0  0  0  0  0  0  0  0  0  0
    3.6250   -0.1542    0.0000 C   0  0  0  0  0  0  0  0  0  0  0  0
    2.3167   -0.9167    0.0000 C   0  0  0  0  0  0  0  0  0  0  0  0
    2.9750    0.2208    0.0000 C   0  0  0  0  0  0  0  0  0  0  0  0
   -0.9708    0.2083    0.0000 C   0  0  0  0  0  0  0  0  0  0  0  0
    1.0042   -0.1542    0.0000 C   0  0  0  0  0  0  0  0  0  0  0  0
    4.2875   -1.2917    0.0000 O   0  0  0  0  0  0  0  0  0  0  0  0
    0.3500    0.2208    0.0000 C   0  0  0  0  0  0  0  0  0  0  0  0
   -1.6208   -0.1750    0.0000 C   0  0  0  0  0  0  0  0  0  0  0  0
    0.3417    0.9833    0.0000 C   0  0  0  0  0  0  0  0  0  0  0  0
  2  1  2  0
  3  1  1  0
  4  2  1  0
  5  3  2  0
  6 17  1  0
  7 14  1  0
  8 12  1  0
  9  1  1  0
 10  5  1  0
 11  2  1  0
 12 18  1  0
 13 15  1  0
 14 16  2  0
 15  8  2  0
 16  8  1  0
 17 21  1  0
 18 20  1  0
 19  7  1  0
 20  6  1  0
 21  5  1  0
 22 20  1  0
  4 10  2  0
 13  7  2  0
M  END
> <chembl_id>
CHEMBL926

> <chembl_pref_name>
DOBUTAMINE

$$$$

     RDKit          2D

 11 12  0  0  0  0  0  0  0  0999 V2000
    7.4137   -5.9227    0.0000 N   0  0  0  0  0  0  0  0  0  0  0  0
    8.2218   -5.7366    0.0000 N   0  0  0  0  0  0  0  0  0  0  0  0
    8.5790   -4.9918    0.0000 C   0  0  0  0  0  0  0  0  0  0  0  0
    8.2218   -4.2470    0.0000 C   0  0  0  0  0  0  0  0  0  0  0  0
    7.4137   -4.0610    0.0000 C   0  0  0  0  0  0  0  0  0  0  0  0
    6.7691   -4.5785    0.0000 C   0  0  0  0  0  0  0  0  0  0  0  0
    6.7691   -5.4051    0.0000 C   0  0  0  0  0  0  0  0  0  0  0  0
    6.0518   -5.8184    0.0000 C   0  0  0  0  0  0  0  0  0  0  0  0
    5.3346   -5.4051    0.0000 C   0  0  0  0  0  0  0  0  0  0  0  0
    5.3346   -4.5785    0.0000 C   0  0  0  0  0  0  0  0  0  0  0  0
    6.0518   -4.1653    0.0000 C   0  0  0  0  0  0  0  0  0  0  0  0
  1  2  1  0
  2  3  2  0
  3  4  1  0
  4  5  2  0
  5  6  1  0
  6  7  1  0
  1  7  1  0
  7  8  2  0
  9  8  1  0
 10  9  2  0
 11 10  1  0
  6 11  2  0
M  END
> <chembl_id>
CHEMBL4297264

> <chembl_pref_name>
BENZODIAZEPINE

$$$$

     RDKit          2D

 35 36  0  0  0  0  0  0  0  0999 V2000
    8.2167   -7.5875    0.0000 Ca  0  0  0  0  0 15  0  0  0  0  0  0
    0.4625   -5.2750    0.0000 C   0  0  0  0  0  0  0  0  0  0  0  0
    0.4625   -4.5917    0.0000 C   0  0  0  0  0  0  0  0  0  0  0  0
   -0.7208   -5.2417    0.0000 N   0  0  0  0  0  0  0  0  0  0  0  0
   -0.1333   -5.5875    0.0000 C   0  0  0  0  0  0  0  0  0  0  0  0
   -0.1250   -4.2417    0.0000 N   0  0  0  0  0  0  0  0  0  0  0  0
    1.0500   -5.6042    0.0000 N   0  0  0  0  0  0  0  0  0  0  0  0
   -0.7208   -4.5917    0.0000 C   0  0  0  0  0  0  0  0  0  0  0  0
    1.0500   -4.2542    0.0000 N   0  0  0  0  0  0  0  0  0  0  0  0
    5.1542   -6.6667    0.0000 C   0  0  0  0  0  0  0  0  0  0  0  0
    5.7750   -6.3208    0.0000 N   0  0  0  0  0  0  0  0  0  0  0  0
    1.6417   -5.2792    0.0000 C   0  0  0  0  0  0  0  0  0  0  0  0
    6.3750   -7.3917    0.0000 C   0  0  0  0  0  0  0  0  0  0  0  0
    1.0417   -6.2792    0.0000 C   0  0  0  0  0  0  0  0  0  0  0  0
    6.3833   -6.6833    0.0000 C   0  0  0  0  0  0  0  0  0  0  0  0
    8.2167   -6.3417    0.0000 C   0  0  0  0  0  0  0  0  0  0  0  0
   -0.1333   -6.2917    0.0000 O   0  0  0  0  0  0  0  0  0  0  0  0
    4.5542   -6.3167    0.0000 C   0  0  0  0  0  0  0  0  0  0  0  0
    1.6417   -4.6000    0.0000 C   0  0  0  0  0  0  0  0  0  0  0  0
    6.9833   -7.7542    0.0000 O   0  0  0  0  0  0  0  0  0  0  0  0
    5.1417   -7.3292    0.0000 O   0  0  0  0  0  0  0  0  0  0  0  0
    2.2292   -5.6292    0.0000 C   0  0  0  0  0  0  0  0  0  0  0  0
    2.8167   -5.2917    0.0000 N   0  0  0  0  0  0  0  0  0  0  0  0
    8.8375   -6.6875    0.0000 O   0  0  0  0  0  0  0  0  0  0  0  0
    5.7542   -7.7375    0.0000 O   0  0  0  0  0  0  0  0  0  0  0  0
   -1.3125   -4.2375    0.0000 N   0  0  0  0  0  0  0  0  0  0  0  0
    1.6292   -6.6375    0.0000 O   0  0  0  0  0  0  0  0  0  0  0  0
    8.2125   -5.6333    0.0000 O   0  0  0  0  0  0  0  0  0  0  0  0
    7.0000   -6.3375    0.0000 C   0  0  0  0  0  0  0  0  0  0  0  0
    4.5625   -5.6417    0.0000 C   0  0  0  0  0  0  0  0  0  0  0  0
    3.9667   -6.6500    0.0000 C   0  0  0  0  0  0  0  0  0  0  0  0
    3.3792   -5.6292    0.0000 C   0  0  0  0  0  0  0  0  0  0  0  0
    7.6083   -6.7000    0.0000 C   0  0  0  0  0  0  0  0  0  0  0  0
    3.9792   -5.2917    0.0000 C   0  0  0  0  0  0  0  0  0  0  0  0
    3.3875   -6.3042    0.0000 C   0  0  0  0  0  0  0  0  0  0  0  0
  3  2  2  0
  4  5  1  0
  5  2  1  0
  6  3  1  0
  7  2  1  0
  8  4  2  0
  9  3  1  0
 10 18  1  0
 11 10  1  0
 12  7  1  0
 15 13  1  0
 14  7  1  0
 15 11  1  1
 16 33  1  0
 17  5  2  0
 18 31  2  0
 19 12  1  0
 20 13  1  0
 21 10  2  0
 22 12  1  0
 23 22  1  0
 24 16  1  0
 25 13  2  0
 26  8  1  0
 27 14  2  0
 28 16  2  0
 29 15  1  0
 30 34  2  0
 31 35  1  0
 32 23  1  0
 33 29  1  0
 34 32  1  0
 35 32  2  0
  8  6  1  0
 19  9  1  0
 18 30  1  0
M  CHG  3   1   2  20  -1  24  -1
M  END
> <chembl_id>
CHEMBL1201138

> <chembl_pref_name>
LEUCOVORIN CALCIUM

$$$$

     RDKit          2D

 46 48  0  0  0  0  0  0  0  0999 V2000
   -2.3737   -0.1109    0.0000 C   0  0  0  0  0  0  0  0  0  0  0  0
   -2.3875    0.5918    0.0000 C   0  0  0  0  0  0  0  0  0  0  0  0
   -1.7379   -0.4996    0.0000 C   0  0  0  0  0  0  0  0  0  0  0  0
   -2.9984   -0.4996    0.0000 C   0  0  0  0  0  0  0  0  0  0  0  0
   -1.7945    0.9445    0.0000 C   0  0  0  0  0  0  0  0  0  0  0  0
   -3.0336    0.9266    0.0000 C   0  0  0  0  0  0  0  0  0  0  0  0
   -1.7379   -1.2126    0.0000 C   0  0  0  0  0  0  0  0  0  0  0  0
   -1.1167   -0.2138    0.0000 C   0  0  0  0  0  0  0  0  0  0  0  0
   -2.9984   -1.2126    0.0000 C   0  0  0  0  0  0  0  0  0  0  0  0
   -3.6376   -0.1109    0.0000 C   0  0  0  0  0  0  0  0  0  0  0  0
   -1.7945    1.6542    0.0000 C   0  0  0  0  0  0  0  0  0  0  0  0
   -3.0336    1.6542    0.0000 C   0  0  0  0  0  0  0  0  0  0  0  0
   -2.3668   -1.6013    0.0000 N   0  0  0  0  0  0  0  0  0  0  0  0
   -1.1380   -1.5730    0.0000 C   0  0  0  0  0  0  0  0  0  0  0  0
   -0.4775   -0.5314    0.0000 O   0  0  0  0  0  0  0  0  0  0  0  0
   -1.1167    0.5352    0.0000 O   0  0  0  0  0  0  0  0  0  0  0  0
   -3.6376   -1.5730    0.0000 C   0  0  0  0  0  0  0  0  0  0  0  0
   -4.2624   -0.4609    0.0000 O   0  0  0  0  0  0  0  0  0  0  0  0
   -3.6376    0.5559    0.0000 O   0  0  0  0  0  0  0  0  0  0  0  0
   -2.3875    2.0600    0.0000 C   0  0  0  0  0  0  0  0  0  0  0  0
    0.1542   -0.2138    0.0000 C   0  0  0  0  0  0  0  0  0  0  0  0
   -4.8947   -0.1109    0.0000 C   0  0  0  0  0  0  0  0  0  0  0  0
    0.7120   -0.5314    0.0000 C   0  0  0  0  0  0  0  0  0  0  0  0
   -0.1461    0.3654    0.0000 C   0  0  0  0  0  0  0  0  0  0  0  0
    0.3806    0.3654    0.0000 C   0  0  0  0  0  0  0  0  0  0  0  0
    1.3263   -0.2138    0.0000 N   0  0  0  0  0  0  0  0  0  0  0  0
    1.9621   -0.5665    0.0000 C   0  0  0  0  0  0  0  0  0  0  0  0
    1.3263    0.5559    0.0000 C   0  0  0  0  0  0  0  0  0  0  0  0
    2.6013   -0.2138    0.0000 C   0  0  0  0  0  0  0  0  0  0  0  0
    3.2225   -0.5314    0.0000 C   0  0  0  0  0  0  0  0  0  0  0  0
    3.2081   -1.2126    0.0000 C   0  0  0  0  0  0  0  0  0  0  0  0
    3.8121   -0.2276    0.0000 C   0  0  0  0  0  0  0  0  0  0  0  0
    2.6013   -1.5585    0.0000 C   0  0  0  0  0  0  0  0  0  0  0  0
    3.8121   -1.5413    0.0000 C   0  0  0  0  0  0  0  0  0  0  0  0
    3.8121    0.4958    0.0000 C   0  0  0  0  0  0  0  0  0  0  0  0
    4.4762   -0.5665    0.0000 C   0  0  0  0  0  0  0  0  0  0  0  0
    2.6013   -2.2647    0.0000 C   0  0  0  0  0  0  0  0  0  0  0  0
    3.8121   -2.2543    0.0000 C   0  0  0  0  0  0  0  0  0  0  0  0
    4.4513    0.8458    0.0000 C   0  0  0  0  0  0  0  0  0  0  0  0
    5.0581   -0.2276    0.0000 C   0  0  0  0  0  0  0  0  0  0  0  0
    3.2329   -2.6388    0.0000 C   0  0  0  0  0  0  0  0  0  0  0  0
    5.0581    0.5207    0.0000 C   0  0  0  0  0  0  0  0  0  0  0  0
   -1.1733    2.0145    0.0000 N   0  0  0  0  0  0  0  0  0  0  0  0
   -1.1484    2.7207    0.0000 O   0  0  0  0  0  0  0  0  0  0  0  0
   -0.4988    1.7211    0.0000 O   0  0  0  0  0  0  0  0  0  0  0  0
   -0.9167   -2.7917    0.0000 Cl  0  0  0  0  0  0  0  0  0  0  0  0
  1  4  1  0
  2  5  1  0
  2  6  2  0
  3  7  2  0
  3  8  1  0
  4  9  2  0
  4 10  1  0
  5 11  2  0
  6 12  1  0
  7 13  1  0
  7 14  1  0
  8 15  1  0
  8 16  2  0
  9 17  1  0
 10 18  1  0
 10 19  2  0
 11 20  1  0
 11 43  1  0
 15 21  1  0
 18 22  1  0
 21 23  1  0
 21 24  1  0
 21 25  1  0
 23 26  1  0
 26 27  1  0
 26 28  1  0
 27 29  1  0
 29 30  1  0
 30 31  1  0
 30 32  1  0
 31 33  1  0
 31 34  2  0
 32 35  2  0
 32 36  1  0
 33 37  2  0
 34 38  1  0
 35 39  1  0
 36 40  2  0
 37 41  1  0
 39 42  2  0
  9 13  1  0
 12 20  2  0
 38 41  2  0
 40 42  1  0
  1  2  1  0
  1  3  1  0
 43 44  2  0
 43 45  1  0
M  CHG  2  43   1  45  -1
M  END
> <chembl_id>
CHEMBL2106419

> <chembl_pref_name>
LERCANIDIPINE HYDROCHLORIDE

$$$$

     RDKit          2D

 22 21  0  0  0  0  0  0  0  0999 V2000
    2.8167    0.7833    0.0000 C   0  0  0  0  0  0  0  0  0  0  0  0
    3.2875    1.3750    0.0000 O   0  0  0  0  0  0  0  0  0  0  0  0
   -1.8875   -1.8167    0.0000 C   0  0  0  0  0  0  0  0  0  0  0  0
   -1.7000   -0.7042    0.0000 C   0  0  0  0  0  0  0  0  0  0  0  0
   -1.2125   -1.8167    0.0000 C   0  0  0  0  0  0  0  0  0  0  0  0
   -1.9208   -0.0292    0.0000 C   0  0  0  0  0  0  0  0  0  0  0  0
    3.2542    0.1833    0.0000 O   0  0  0  0  0  0  0  0  0  0  0  0
   -2.1708   -1.2292    0.0000 C   0  0  0  0  0  0  0  0  0  0  0  0
    2.0792    0.7833    0.0000 C   0  0  0  0  0  0  0  0  0  0  0  0
   -0.9625   -1.1917    0.0000 C   0  0  0  0  0  0  0  0  0  0  0  0
   -2.5833    0.1208    0.0000 C   0  0  0  0  0  0  0  0  0  0  0  0
    3.9375    0.2458    0.0000 C   0  0  0  0  0  0  0  0  0  0  0  0
    1.7750    0.1208    0.0000 C   0  0  0  0  0  0  0  0  0  0  0  0
   -0.2583   -1.1792    0.0000 C   0  0  0  0  0  0  0  0  0  0  0  0
   -2.7833    0.7458    0.0000 C   0  0  0  0  0  0  0  0  0  0  0  0
   -3.6875    1.6208    0.0000 C   0  0  0  0  0  0  0  0  0  0  0  0
   -3.4500    0.9833    0.0000 C   0  0  0  0  0  0  0  0  0  0  0  0
    0.0750   -0.5250    0.0000 C   0  0  0  0  0  0  0  0  0  0  0  0
    0.7542   -0.5250    0.0000 C   0  0  0  0  0  0  0  0  0  0  0  0
    1.0542    0.1208    0.0000 C   0  0  0  0  0  0  0  0  0  0  0  0
    4.3417   -0.3375    0.0000 C   0  0  0  0  0  0  0  0  0  0  0  0
   -4.3458    1.8208    0.0000 C   0  0  0  0  0  0  0  0  0  0  0  0
  2  1  2  0
  3  5  2  0
  4  8  1  0
  5 10  1  0
  6  4  2  0
  7  1  1  0
  8  3  1  0
  9  1  1  0
 10 14  1  0
 11  6  1  0
 12  7  1  0
 13  9  1  0
 14 18  1  0
 15 11  1  0
 16 17  1  0
 17 15  1  0
 18 19  1  0
 19 20  1  0
 20 13  1  0
 21 12  1  0
 22 16  1  0
M  END
> <chembl_id>
CHEMBL2106238

> <chembl_pref_name>
ETHYL LINOLEATE

$$$$

     RDKit          2D

 10 10  0  0  0  0  0  0  0  0999 V2000
    2.8732   -1.6536    0.0000 Cl  0  0  0  0  0  0  0  0  0  0  0  0
    0.0000   -1.6536    0.0000 Cl  0  0  0  0  0  0  0  0  0  0  0  0
    3.5870   -0.4233    0.0000 O   0  0  0  0  0  0  0  0  0  0  0  0
    2.1558   -0.4054    0.0000 C   0  0  0  0  0  0  0  0  0  0  0  0
    2.1558   -1.2304    0.0000 C   0  0  0  0  0  0  0  0  0  0  0  0
    0.7138   -1.2304    0.0000 C   0  0  0  0  0  0  0  0  0  0  0  0
    1.4312   -1.6536    0.0000 C   0  0  0  0  0  0  0  0  0  0  0  0
    1.4312    0.0000    0.0000 C   0  0  0  0  0  0  0  0  0  0  0  0
    0.7138   -0.4054    0.0000 C   0  0  0  0  0  0  0  0  0  0  0  0
    2.8625    0.0000    0.0000 C   0  0  0  0  0  0  0  0  0  0  0  0
  1  5  1  0
  2  6  1  0
  3 10  1  0
  4  5  2  0
  4  8  1  0
  4 10  1  0
  5  7  1  0
  6  7  2  0
  6  9  1  0
  8  9  2  0
M  END
> <chembl_id>
CHEMBL3184437

> <chembl_pref_name>
DICHLOROBENZYL ALCOHOL

$$$$

     RDKit          2D

 23 24  0  0  1  0  0  0  0  0999 V2000
    4.2417   -5.2417    0.0000 C   0  0  0  0  0  0  0  0  0  0  0  0
    4.2417   -4.5292    0.0000 C   0  0  0  0  0  0  0  0  0  0  0  0
    4.8542   -5.5917    0.0000 C   0  0  0  0  0  0  0  0  0  0  0  0
    7.3042   -4.1792    0.0000 C   0  0  0  0  0  0  0  0  0  0  0  0
    3.6250   -5.5917    0.0000 O   0  0  0  0  0  0  0  0  0  0  0  0
    5.4667   -4.5292    0.0000 C   0  0  0  0  0  0  0  0  0  0  0  0
    1.7792   -5.2417    0.0000 C   0  0  0  0  0  0  0  0  0  0  0  0
    2.4000   -5.5917    0.0000 C   0  0  0  0  0  0  0  0  0  0  0  0
    6.6917   -4.5292    0.0000 C   0  0  0  0  0  0  0  0  0  0  0  0
    5.4667   -5.2417    0.0000 C   0  0  0  0  0  0  0  0  0  0  0  0
    4.8542   -4.1792    0.0000 C   0  0  0  0  0  0  0  0  0  0  0  0
    3.0125   -5.2417    0.0000 C   0  0  0  0  0  0  0  0  0  0  0  0
    6.0792   -4.1792    0.0000 C   0  0  0  0  0  0  0  0  0  0  0  0
    1.7792   -4.5292    0.0000 C   0  0  0  0  0  0  0  0  0  0  0  0
    7.9167   -4.5292    0.0000 O   0  0  0  0  0  0  0  0  0  0  0  0
    7.3042   -3.4667    0.0000 O   0  0  0  0  0  0  0  0  0  0  0  0
    2.4000   -4.1792    0.0000 C   0  0  0  0  0  0  0  0  0  0  0  0
    3.6292   -4.1792    0.0000 I   0  0  0  0  0  0  0  0  0  0  0  0
    4.8542   -6.3042    0.0000 I   0  0  0  0  0  0  0  0  0  0  0  0
    1.1667   -5.5917    0.0000 I   0  0  0  0  0  0  0  0  0  0  0  0
    6.6917   -5.2417    0.0000 N   0  0  0  0  0  0  0  0  0  0  0  0
    3.0125   -4.5292    0.0000 C   0  0  0  0  0  0  0  0  0  0  0  0
    1.1667   -4.1792    0.0000 O   0  0  0  0  0  0  0  0  0  0  0  0
  2  1  2  0
  3  1  1  0
  4  9  1  0
  5  1  1  0
  6 10  1  0
  7  8  2  0
  8 12  1  0
  9 13  1  0
 10  3  2  0
 11  2  1  0
 12  5  1  0
 13  6  1  0
 14 17  2  0
 15  4  1  0
 16  4  2  0
 17 22  1  0
 18  2  1  0
 19  3  1  0
 20  7  1  0
  9 21  1  1
 22 12  2  0
 23 14  1  0
  6 11  2  0
 14  7  1  0
M  END
> <chembl_id>
CHEMBL1544

> <chembl_pref_name>
LIOTHYRONINE

$$$$
 
     RDKit          2D

 19 21  0  0  0  0  0  0  0  0999 V2000
    0.0139    1.3372    0.0000 O   0  0  0  0  0  0  0  0  0  0  0  0
   -0.7939    1.1700    0.0000 N   0  0  0  0  0  0  0  0  0  0  0  0
   -0.8775    0.3343    0.0000 C   0  0  0  0  0  0  0  0  0  0  0  0
   -0.1253    0.0000    0.0000 N   0  0  0  0  0  0  0  0  0  0  0  0
    0.4318    0.6129    0.0000 C   0  0  0  0  0  0  0  0  0  0  0  0
    1.2675    0.5293    0.0000 C   0  0  0  0  0  0  0  0  0  0  0  0
    1.7690    1.1979    0.0000 C   0  0  0  0  0  0  0  0  0  0  0  0
    2.6048    1.1143    0.0000 C   0  0  0  0  0  0  0  0  0  0  0  0
    2.9391    0.3621    0.0000 C   0  0  0  0  0  0  0  0  0  0  0  0
    2.4376   -0.3343    0.0000 C   0  0  0  0  0  0  0  0  0  0  0  0
    1.6019   -0.2507    0.0000 C   0  0  0  0  0  0  0  0  0  0  0  0
    3.7749    0.2507    0.0000 F   0  0  0  0  0  0  0  0  0  0  0  0
   -1.6019   -0.0835    0.0000 C   0  0  0  0  0  0  0  0  0  0  0  0
   -2.3262    0.3343    0.0000 C   0  0  0  0  0  0  0  0  0  0  0  0
   -3.0505   -0.0835    0.0000 N   0  0  0  0  0  0  0  0  0  0  0  0
   -3.0505   -0.9193    0.0000 C   0  0  0  0  0  0  0  0  0  0  0  0
   -2.3262   -1.3372    0.0000 C   0  0  0  0  0  0  0  0  0  0  0  0
   -1.6019   -0.9193    0.0000 C   0  0  0  0  0  0  0  0  0  0  0  0
   -3.7749   -1.3372    0.0000 C   0  0  0  0  0  0  0  0  0  0  0  0
  1  2  1  0
  2  3  2  0
  3  4  1  0
  4  5  2  0
  1  5  1  0
  5  6  1  0
  6  7  1  0
  7  8  2  0
  8  9  1  0
  9 10  2  0
 10 11  1  0
  6 11  2  0
  9 12  1  0
  3 13  1  0
 14 13  1  0
 14 15  2  0
 16 15  1  0
 17 16  2  0
 13 18  2  0
 18 17  1  0
 16 19  1  0
M  END
> <chembl_id>
CHEMBL5203892

> <chembl_pref_name>
None

$$$$
 
     RDKit          2D

 50 56  0  0  0  0  0  0  0  0999 V2000
    0.3635   -1.3653    0.0000 N   0  0  0  0  0  0  0  0  0  0  0  0
   -0.3038   -0.8803    0.0000 C   0  0  0  0  0  0  0  0  0  0  0  0
   -0.0489   -0.0954    0.0000 C   0  0  0  0  0  0  0  0  0  0  0  0
    0.7761   -0.0954    0.0000 N   0  0  0  0  0  0  0  0  0  0  0  0
    1.0311   -0.8803    0.0000 N   0  0  0  0  0  0  0  0  0  0  0  0
   -1.1110   -1.0518    0.0000 C   0  0  0  0  0  0  0  0  0  0  0  0
   -1.6632   -0.4386    0.0000 N   0  0  0  0  0  0  0  0  0  0  0  0
   -1.4082    0.3459    0.0000 C   0  0  0  0  0  0  0  0  0  0  0  0
   -0.6010    0.5175    0.0000 C   0  0  0  0  0  0  0  0  0  0  0  0
   -1.9582    0.9577    0.0000 C   0  0  0  0  0  0  0  0  0  0  0  0
   -1.7034    1.7428    0.0000 C   0  0  0  0  0  0  0  0  0  0  0  0
   -0.9007    1.9153    0.0000 C   0  0  0  0  0  0  0  0  0  0  0  0
   -0.3452    1.3058    0.0000 C   0  0  0  0  0  0  0  0  0  0  0  0
   -2.7555    0.7441    0.0000 F   0  0  0  0  0  0  0  0  0  0  0  0
   -0.6872    2.7124    0.0000 C   0  0  0  0  0  0  0  0  0  0  0  0
   -2.2870    2.3264    0.0000 C   0  0  0  0  0  0  0  0  0  0  0  0
   -3.0843    2.1129    0.0000 C   0  0  0  0  0  0  0  0  0  0  0  0
   -3.6655    2.6953    0.0000 C   0  0  0  0  0  0  0  0  0  0  0  0
   -3.4519    3.4927    0.0000 C   0  0  0  0  0  0  0  0  0  0  0  0
   -2.6592    3.7067    0.0000 C   0  0  0  0  0  0  0  0  0  0  0  0
   -2.0725    3.1269    0.0000 C   0  0  0  0  0  0  0  0  0  0  0  0
   -4.1441    3.9424    0.0000 C   0  0  0  0  0  0  0  0  0  0  0  0
   -4.4899    2.6522    0.0000 N   0  0  0  0  0  0  0  0  0  0  0  0
   -4.7857    3.4229    0.0000 N   0  0  0  0  0  0  0  0  0  0  0  0
    1.1887    0.6190    0.0000 C   0  0  0  0  0  0  0  0  0  0  0  0
    0.7761    1.3337    0.0000 C   0  0  0  0  0  0  0  0  0  0  0  0
    1.1887    2.0485    0.0000 C   0  0  0  0  0  0  0  0  0  0  0  0
    2.0140    2.0485    0.0000 N   0  0  0  0  0  0  0  0  0  0  0  0
    2.4267    1.3337    0.0000 C   0  0  0  0  0  0  0  0  0  0  0  0
    2.0140    0.6190    0.0000 C   0  0  0  0  0  0  0  0  0  0  0  0
    2.4267    2.7632    0.0000 C   0  0  0  0  0  0  0  0  0  0  0  0
    2.0140    3.4778    0.0000 O   0  0  0  0  0  0  0  0  0  0  0  0
    3.2519    2.7632    0.0000 C   0  0  0  0  0  0  0  0  0  0  0  0
    3.6646    3.4778    0.0000 C   0  0  0  0  0  0  0  0  0  0  0  0
    4.4898    3.4778    0.0000 C   0  0  0  0  0  0  0  0  0  0  0  0
    4.9025    4.1926    0.0000 F   0  0  0  0  0  0  0  0  0  0  0  0
    3.2519    1.3337    0.0000 C   0  0  0  0  0  0  0  0  0  0  0  0
    3.6646    0.6190    0.0000 C   0  0  0  0  0  0  0  0  0  0  0  0
    4.0773   -0.0955    0.0000 N   0  0  0  0  0  0  0  0  0  0  0  0
   -1.3246   -1.8489    0.0000 O   0  0  0  0  0  0  0  0  0  0  0  0
   -2.1218   -2.0626    0.0000 C   0  0  0  0  0  0  0  0  0  0  0  0
   -2.3353   -2.8598    0.0000 C   0  0  0  0  0  0  0  0  0  0  0  0
   -2.7053   -1.4789    0.0000 C   0  0  0  0  0  0  0  0  0  0  0  0
   -1.8162   -3.5008    0.0000 N   0  0  0  0  0  0  0  0  0  0  0  0
   -2.2655   -4.1926    0.0000 C   0  0  0  0  0  0  0  0  0  0  0  0
   -3.0623   -3.9792    0.0000 C   0  0  0  0  0  0  0  0  0  0  0  0
   -3.1054   -3.1553    0.0000 C   0  0  0  0  0  0  0  0  0  0  0  0
   -0.9910   -3.5008    0.0000 C   0  0  0  0  0  0  0  0  0  0  0  0
   -4.9025    1.9373    0.0000 C   0  0  0  0  0  0  0  0  0  0  0  0
   -1.5282   -2.6882    0.0000 H   0  0  0  0  0  0  0  0  0  0  0  0
  1  2  1  0
  2  3  2  0
  3  4  1  0
  4  5  1  0
  5  1  2  0
  2  6  1  0
  7  6  2  0
  8  7  1  0
  9  8  2  0
  3  9  1  0
  8 10  1  0
 11 10  2  0
 12 11  1  0
 13 12  2  0
  9 13  1  0
 10 14  1  0
 12 15  1  0
 16 11  1  0
 17 16  2  0
 18 17  1  0
 19 18  2  0
 20 19  1  0
 16 21  1  0
 21 20  2  0
 19 22  1  0
 18 23  1  0
 23 24  1  0
 24 22  2  0
 25  4  1  1
 25 26  1  0
 27 26  1  0
 28 27  1  0
 29 28  1  0
 25 30  1  0
 30 29  1  0
 28 31  1  0
 31 32  2  0
 31 33  1  0
 33 34  2  0
 34 35  1  0
 35 36  1  0
 29 37  1  6
 37 38  1  0
 38 39  3  0
  6 40  1  0
 40 41  1  0
 42 41  1  0
 41 43  1  6
 44 42  1  0
 44 45  1  0
 45 46  1  0
 46 47  1  0
 42 47  1  0
 44 48  1  0
 23 49  1  0
 42 50  1  6
M  END
> <chembl_id>
CHEMBL5273809

> <chembl_pref_name>
None

$$$$

     RDKit          2D

 22 21  0  0  0  0  0  0  0  0999 V2000
   -7.1136   -1.7278    0.0000 C   0  0  0  0  0  0  0  0  0  0  0  0
   -6.6908   -1.0193    0.0000 C   0  0  0  0  0  0  0  0  0  0  0  0
   -5.8659   -1.0312    0.0000 C   0  0  0  0  0  0  0  0  0  0  0  0
   -5.4432   -0.3228    0.0000 C   0  0  0  0  0  0  0  0  0  0  0  0
   -4.6182   -0.3347    0.0000 C   0  0  0  0  0  0  0  0  0  0  0  0
   -4.2386   -1.0672    0.0000 C   0  0  0  0  0  0  0  0  0  0  0  0
   -3.4096   -1.0757    0.0000 C   0  0  0  0  0  0  0  0  0  0  0  0
   -2.9835   -0.3644    0.0000 C   0  0  0  0  0  0  0  0  0  0  0  0
   -2.2722   -0.7905    0.0000 C   0  0  0  0  0  0  0  0  0  0  0  0
   -1.5453   -0.3917    0.0000 C   0  0  0  0  0  0  0  0  0  0  0  0
   -1.5274    0.4331    0.0000 C   0  0  0  0  0  0  0  0  0  0  0  0
   -0.8033    0.8304    0.0000 C   0  0  0  0  0  0  0  0  0  0  0  0
   -0.0968    0.4028    0.0000 C   0  0  0  0  0  0  0  0  0  0  0  0
    0.6273    0.8000    0.0000 C   0  0  0  0  0  0  0  0  0  0  0  0
    1.3338    0.3725    0.0000 C   0  0  0  0  0  0  0  0  0  0  0  0
    2.0579    0.7697    0.0000 C   0  0  0  0  0  0  0  0  0  0  0  0
    2.7644    0.3421    0.0000 C   0  0  0  0  0  0  0  0  0  0  0  0
    3.4884    0.7394    0.0000 C   0  0  0  0  0  0  0  0  0  0  0  0
    4.1950    0.3118    0.0000 O   0  0  0  0  0  0  0  0  0  0  0  0
   -3.6913    0.0595    0.0000 H   0  0  0  0  0  0  0  0  0  0  0  0
   -2.5405    0.3315    0.0000 H   0  0  0  0  0  0  0  0  0  0  0  0
    3.5059    1.5642    0.0000 O   0  0  0  0  0  0  0  0  0  0  0  0
  1  2  1  0
  2  3  1  0
  3  4  1  0
  4  5  1  0
  6  7  2  0
  7  8  1  0
  8  9  1  0
  9 10  2  0
 11 12  1  0
 12 13  1  0
 13 14  1  0
 14 15  1  0
 15 16  1  0
 16 17  1  0
 17 18  1  0
 18 19  1  0
  5  6  1  0
 10 11  1  0
  8 20  1  0
  8 21  1  0
 18 22  2  0
M  ISO  2  20   2  21   2
M  END
> <chembl_id>
CHEMBL5095085

> <chembl_pref_name>
DEULINOLEIC ACID

$$$$

     RDKit          2D

 51 56  0  0  0  0  0  0  0  0999 V2000
    1.4466   -6.2755    0.0000 C   0  0  0  0  0  0  0  0  0  0  0  0
    2.0849   -6.6720    0.0000 C   0  0  0  0  0  0  0  0  0  0  0  0
    0.8082   -6.6720    0.0000 C   0  0  0  0  0  0  0  0  0  0  0  0
    1.4603   -5.4462    0.0000 C   0  0  0  0  0  0  0  0  0  0  0  0
    2.0849   -7.4296    0.0000 C   0  0  0  0  0  0  0  0  0  0  0  0
    2.6758   -6.2997    0.0000 C   0  0  0  0  0  0  0  0  0  0  0  0
    0.8082   -7.4296    0.0000 C   0  0  0  0  0  0  0  0  0  0  0  0
    0.2691   -6.3370    0.0000 C   0  0  0  0  0  0  0  0  0  0  0  0
    2.0987   -5.1189    0.0000 C   0  0  0  0  0  0  0  0  0  0  0  0
    0.8220   -5.1189    0.0000 C   0  0  0  0  0  0  0  0  0  0  0  0
    1.4466   -7.8150    0.0000 N   0  0  0  0  0  0  0  0  0  0  0  0
    2.6378   -7.6620    0.0000 C   0  0  0  0  0  0  0  0  0  0  0  0
    3.1948   -6.6134    0.0000 O   0  0  0  0  0  0  0  0  0  0  0  0
    2.6723   -5.7193    0.0000 O   0  0  0  0  0  0  0  0  0  0  0  0
    0.3133   -7.7026    0.0000 C   0  0  0  0  0  0  0  0  0  0  0  0
   -0.2466   -6.6720    0.0000 O   0  0  0  0  0  0  0  0  0  0  0  0
    0.2691   -5.7262    0.0000 O   0  0  0  0  0  0  0  0  0  0  0  0
    2.0987   -4.3811    0.0000 C   0  0  0  0  0  0  0  0  0  0  0  0
    0.8220   -4.3811    0.0000 C   0  0  0  0  0  0  0  0  0  0  0  0
    3.7408   -6.2997    0.0000 C   0  0  0  0  0  0  0  0  0  0  0  0
   -0.7208   -6.3370    0.0000 C   0  0  0  0  0  0  0  0  0  0  0  0
    1.4603   -3.9986    0.0000 C   0  0  0  0  0  0  0  0  0  0  0  0
    4.2902   -6.6444    0.0000 C   0  0  0  0  0  0  0  0  0  0  0  0
    4.8948   -6.2418    0.0000 C   0  0  0  0  0  0  0  0  0  0  0  0
    5.5297   -6.6478    0.0000 C   0  0  0  0  0  0  0  0  0  0  0  0
    4.8948   -5.4870    0.0000 C   0  0  0  0  0  0  0  0  0  0  0  0
    6.1784   -6.2418    0.0000 C   0  0  0  0  0  0  0  0  0  0  0  0
    5.5297   -5.1836    0.0000 C   0  0  0  0  0  0  0  0  0  0  0  0
    6.1784   -5.4870    0.0000 C   0  0  0  0  0  0  0  0  0  0  0  0
    6.7582   -5.2277    0.0000 N   0  0  0  0  0  0  0  0  0  0  0  0
    6.7858   -4.4633    0.0000 C   0  0  0  0  0  0  0  0  0  0  0  0
    7.4889   -5.5862    0.0000 C   0  0  0  0  0  0  0  0  0  0  0  0
    7.4172   -4.1047    0.0000 C   0  0  0  0  0  0  0  0  0  0  0  0
    8.1204   -5.2208    0.0000 C   0  0  0  0  0  0  0  0  0  0  0  0
    8.1204   -4.4633    0.0000 N   0  0  0  0  0  0  0  0  0  0  0  0
    8.9401   -3.9786    0.0000 C   0  0  0  0  0  0  0  0  0  0  0  0
    8.9401   -3.2168    0.0000 C   0  0  0  0  0  0  0  0  0  0  0  0
    9.6633   -4.4053    0.0000 C   0  0  0  0  0  0  0  0  0  0  0  0
    9.5233   -2.8480    0.0000 C   0  0  0  0  0  0  0  0  0  0  0  0
    8.3527   -2.8480    0.0000 C   0  0  0  0  0  0  0  0  0  0  0  0
   10.2609   -4.0400    0.0000 C   0  0  0  0  0  0  0  0  0  0  0  0
    9.6633   -5.0947    0.0000 C   0  0  0  0  0  0  0  0  0  0  0  0
    9.5233   -2.1690    0.0000 C   0  0  0  0  0  0  0  0  0  0  0  0
    8.3527   -2.1690    0.0000 C   0  0  0  0  0  0  0  0  0  0  0  0
   10.8717   -4.4053    0.0000 C   0  0  0  0  0  0  0  0  0  0  0  0
   10.2609   -5.4022    0.0000 C   0  0  0  0  0  0  0  0  0  0  0  0
    8.9401   -1.7898    0.0000 C   0  0  0  0  0  0  0  0  0  0  0  0
   10.8717   -5.0947    0.0000 C   0  0  0  0  0  0  0  0  0  0  0  0
    2.7233   -4.0262    0.0000 N   0  0  0  0  0  0  0  0  0  0  0  0
    2.7302   -3.3057    0.0000 O   0  0  0  0  0  0  0  0  0  0  0  0
    3.3409   -4.3915    0.0000 O   0  0  0  0  0  0  0  0  0  0  0  0
  2  6  1  0
  3  7  2  0
  3  8  1  0
  4  9  2  0
  4 10  1  0
  5 11  1  0
  5 12  1  0
  6 13  1  0
  6 14  2  0
  7 15  1  0
  8 16  1  0
  8 17  2  0
  9 18  1  0
 10 19  2  0
 13 20  1  0
 16 21  1  0
 18 22  2  0
 18 49  1  0
 20 23  1  0
 23 24  1  0
 24 25  2  0
 24 26  1  0
 25 27  1  0
 26 28  2  0
 27 29  2  0
 29 30  1  0
 30 31  1  0
 30 32  1  0
 31 33  1  0
 32 34  1  0
 33 35  1  0
 35 36  1  0
 36 37  1  0
 36 38  1  0
 37 39  1  0
 37 40  2  0
 38 41  2  0
 38 42  1  0
 39 43  2  0
 40 44  1  0
 41 45  1  0
 42 46  2  0
 43 47  1  0
 45 48  2  0
  7 11  1  0
 19 22  1  0
 28 29  1  0
 34 35  1  0
 44 47  2  0
 46 48  1  0
  1  2  1  0
  1  3  1  0
  1  4  1  0
  2  5  2  0
 49 50  2  0
 49 51  1  0
M  CHG  2  49   1  51  -1
M  END
> <chembl_id>
CHEMBL2105881

> <chembl_pref_name>
VATANIDIPINE

$$$$

     RDKit          2D

 26 28  0  0  0  0  0  0  0  0999 V2000
   -0.4000    0.9333    0.0000 C   0  0  0  0  0  0  0  0  0  0  0  0
    1.3125    0.9333    0.0000 C   0  0  0  0  0  0  0  0  0  0  0  0
    0.4542    0.4458    0.0000 C   0  0  0  0  0  0  0  0  0  0  0  0
   -0.4000    1.9208    0.0000 C   0  0  0  0  0  0  0  0  0  0  0  0
    1.3125    1.9208    0.0000 C   0  0  0  0  0  0  0  0  0  0  0  0
    0.4542    2.4208    0.0000 N   0  0  0  0  0  0  0  0  0  0  0  0
    0.4542   -0.5500    0.0000 C   0  0  0  0  0  0  0  0  0  0  0  0
    1.3125   -1.0417    0.0000 C   0  0  0  0  0  0  0  0  0  0  0  0
    2.1667    0.4458    0.0000 C   0  0  0  0  0  0  0  0  0  0  0  0
   -1.2625    0.4458    0.0000 C   0  0  0  0  0  0  0  0  0  0  0  0
    2.2542   -0.7375    0.0000 O   0  0  0  0  0  0  0  0  0  0  0  0
    1.3125   -2.0292    0.0000 C   0  0  0  0  0  0  0  0  0  0  0  0
    2.2542   -2.3375    0.0000 O   0  0  0  0  0  0  0  0  0  0  0  0
    2.8292   -1.5375    0.0000 C   0  0  0  0  0  0  0  0  0  0  0  0
   -1.2625   -0.5500    0.0000 O   0  0  0  0  0  0  0  0  0  0  0  0
    2.1667   -0.2542    0.0000 O   0  0  0  0  0  0  0  0  0  0  0  0
    3.0250    0.9333    0.0000 O   0  0  0  0  0  0  0  0  0  0  0  0
   -2.1208    0.9333    0.0000 O   0  0  0  0  0  0  0  0  0  0  0  0
   -0.4000   -1.0417    0.0000 C   0  0  0  0  0  0  0  0  0  0  0  0
   -1.2625    2.4208    0.0000 C   0  0  0  0  0  0  0  0  0  0  0  0
    2.1667    2.4208    0.0000 C   0  0  0  0  0  0  0  0  0  0  0  0
   -0.4000   -2.0292    0.0000 C   0  0  0  0  0  0  0  0  0  0  0  0
    0.4542   -2.5292    0.0000 C   0  0  0  0  0  0  0  0  0  0  0  0
   -2.9750    0.4458    0.0000 C   0  0  0  0  0  0  0  0  0  0  0  0
    3.8792    0.4458    0.0000 C   0  0  0  0  0  0  0  0  0  0  0  0
   -3.8333    0.9333    0.0000 C   0  0  0  0  0  0  0  0  0  0  0  0
  2  3  1  0
  3  1  1  0
  4  1  2  0
  5  6  1  0
  6  4  1  0
  7  3  1  0
  8  7  1  0
  9  2  1  0
 10  1  1  0
 11  8  1  0
 12  8  2  0
 13 12  1  0
 14 11  1  0
 15 10  2  0
 16  9  2  0
 17  9  1  0
 18 10  1  0
 19  7  2  0
 20  4  1  0
 21  5  1  0
 22 19  1  0
 23 22  2  0
 24 18  1  0
 25 17  1  0
 26 24  1  0
  2  5  2  0
 12 23  1  0
 13 14  1  0
M  END
> <chembl_id>
CHEMBL2105319

> <chembl_pref_name>
OXODIPINE

$$$$

     RDKit          2D

 31 33  0  0  0  0  0  0  0  0999 V2000
   -3.3692    0.8427    0.0000 C   0  0  0  0  0  0  0  0  0  0  0  0
   -4.0837    0.4302    0.0000 C   0  0  0  0  0  0  0  0  0  0  0  0
   -4.0837   -0.3948    0.0000 C   0  0  0  0  0  0  0  0  0  0  0  0
   -3.3692   -0.8073    0.0000 C   0  0  0  0  0  0  0  0  0  0  0  0
   -2.6547   -0.3948    0.0000 C   0  0  0  0  0  0  0  0  0  0  0  0
   -2.6547    0.4302    0.0000 C   0  0  0  0  0  0  0  0  0  0  0  0
   -1.9402    0.8427    0.0000 C   0  0  0  0  0  0  0  0  0  0  0  0
   -1.2258    0.4302    0.0000 C   0  0  0  0  0  0  0  0  0  0  0  0
   -0.5113    0.8427    0.0000 C   0  0  0  0  0  0  0  0  0  0  0  0
   -0.5113    1.6677    0.0000 C   0  0  0  0  0  0  0  0  0  0  0  0
    0.2032    2.0802    0.0000 O   0  0  0  0  0  0  0  0  0  0  0  0
   -1.2258    2.0802    0.0000 O   0  0  0  0  0  0  0  0  0  0  0  0
    0.2032    0.4302    0.0000 N   0  0  0  0  0  0  0  0  0  0  0  0
    0.9176    0.8427    0.0000 C   0  0  0  0  0  0  0  0  0  0  0  0
    0.9176    1.6677    0.0000 C   0  0  0  0  0  0  0  0  0  0  0  0
    1.6321    0.4302    0.0000 C   0  0  0  0  0  0  0  0  0  0  0  0
    2.3466    0.8427    0.0000 O   0  0  0  0  0  0  0  0  0  0  0  0
    1.6321   -0.3948    0.0000 N   0  0  0  0  0  0  0  0  0  0  0  0
    0.9647   -0.8798    0.0000 C   0  0  0  0  0  0  0  0  0  0  0  0
    0.1577   -0.7082    0.0000 C   0  0  0  0  0  0  0  0  0  0  0  0
   -0.3943   -1.3213    0.0000 C   0  0  0  0  0  0  0  0  0  0  0  0
   -0.1394   -2.1060    0.0000 C   0  0  0  0  0  0  0  0  0  0  0  0
    0.6676   -2.2775    0.0000 C   0  0  0  0  0  0  0  0  0  0  0  0
    1.2196   -1.6644    0.0000 C   0  0  0  0  0  0  0  0  0  0  0  0
    2.0446   -1.6644    0.0000 C   0  0  0  0  0  0  0  0  0  0  0  0
    2.2996   -0.8798    0.0000 C   0  0  0  0  0  0  0  0  0  0  0  0
    3.0842   -0.6248    0.0000 C   0  0  0  0  0  0  0  0  0  0  0  0
    3.6973   -1.1769    0.0000 O   0  0  0  0  0  0  0  0  0  0  0  0
    3.2557    0.1821    0.0000 O   0  0  0  0  0  0  0  0  0  0  0  0
    1.6264   -2.5779    0.0000 H   0  0  0  0  0  0  0  0  0  0  0  0
    0.7568    0.0983    0.0000 H   0  0  0  0  0  0  0  0  0  0  0  0
  2  1  1  0
  1  6  2  0
  3  2  2  0
  3  4  1  0
  4  5  2  0
  5  6  1  0
  7  6  1  0
  7  8  1  0
  9  8  1  1
 10  9  1  0
  9 13  1  0
 10 11  1  0
 10 12  2  0
 14 13  1  0
 14 15  1  1
 16 14  1  0
 16 17  2  0
 16 18  1  0
 19 18  1  0
 26 18  1  0
 20 19  1  0
 24 19  1  0
 21 20  1  0
 22 21  1  0
 22 23  1  0
 23 24  1  0
 24 25  1  0
 25 26  1  0
 26 27  1  6
 27 28  2  0
 27 29  1  0
 24 30  1  6
 19 31  1  1
M  END
> <chembl_id>
CHEMBL1201387

> <chembl_pref_name>
TRANDOLAPRILAT

$$$$

     RDKit          2D

 15 16  0  0  0  0  0  0  0  0999 V2000
    3.1000    2.3083    0.0000 C   0  0  0  0  0  0  0  0  0  0  0  0
    4.3375    3.0208    0.0000 C   0  0  0  0  0  0  0  0  0  0  0  0
   -1.8583   -0.5375    0.0000 C   0  0  0  0  0  0  0  0  0  0  0  0
   -0.6083    0.1625    0.0000 C   0  0  0  0  0  0  0  0  0  0  0  0
   -1.8583   -1.9625    0.0000 C   0  0  0  0  0  0  0  0  0  0  0  0
    1.8750    1.6000    0.0000 C   0  0  0  0  0  0  0  0  0  0  0  0
   -0.6000    1.6083    0.0000 C   0  0  0  0  0  0  0  0  0  0  0  0
    0.6042   -0.5375    0.0000 C   0  0  0  0  0  0  0  0  0  0  0  0
   -0.5833   -2.6667    0.0000 F   0  0  0  0  0  0  0  0  0  0  0  0
    0.6417    2.3375    0.0000 C   0  0  0  0  0  0  0  0  0  0  0  0
    1.8750    0.1750    0.0000 C   0  0  0  0  0  0  0  0  0  0  0  0
   -3.1083    0.1625    0.0000 C   0  0  0  0  0  0  0  0  0  0  0  0
   -3.0833   -2.6875    0.0000 C   0  0  0  0  0  0  0  0  0  0  0  0
   -4.3458   -0.5417    0.0000 C   0  0  0  0  0  0  0  0  0  0  0  0
   -4.3208   -1.9792    0.0000 C   0  0  0  0  0  0  0  0  0  0  0  0
  2  1  3  0
  3  4  1  0
  4  8  2  0
  5  3  1  0
  6  1  1  0
  7 10  2  0
  8 11  1  0
  9  5  1  0
 10  6  1  0
 11  6  2  0
 12  3  2  0
 13  5  2  0
 14 12  1  0
 15 14  2  0
  7  4  1  0
 13 15  1  0
M  END
> <chembl_id>
CHEMBL2106321

> <chembl_pref_name>
FLURETOFEN

$$$$

     RDKit          2D

 21 22  0  0  0  0  0  0  0  0999 V2000
    9.9992   -7.1710    0.0000 N   0  0  0  0  0  0  0  0  0  0  0  0
   10.2418   -7.9514    0.0000 C   0  0  0  0  0  0  0  0  0  0  0  0
   11.0588   -7.9639    0.0000 C   0  0  0  0  0  0  0  0  0  0  0  0
   11.3226   -7.1875    0.0000 S   0  0  0  0  0  0  0  0  0  0  0  0
   10.6666   -6.7016    0.0000 C   0  0  0  0  0  0  0  0  0  0  0  0
   11.4675   -8.6715    0.0000 C   0  0  0  0  0  0  0  0  0  0  0  0
   12.2847   -8.6714    0.0000 C   0  0  0  0  0  0  0  0  0  0  0  0
   12.6934   -9.3791    0.0000 C   0  0  0  0  0  0  0  0  0  0  0  0
   12.6932   -7.9636    0.0000 C   0  0  0  0  0  0  0  0  0  0  0  0
    9.7523   -8.6057    0.0000 C   0  0  0  0  0  0  0  0  0  0  0  0
    8.9409   -8.5090    0.0000 O   0  0  0  0  0  0  0  0  0  0  0  0
   10.0743   -9.3568    0.0000 O   0  0  0  0  0  0  0  0  0  0  0  0
    9.5849  -10.0112    0.0000 C   0  0  0  0  0  0  0  0  0  0  0  0
    9.9068  -10.7623    0.0000 C   0  0  0  0  0  0  0  0  0  0  0  0
   10.6748   -5.8873    0.0000 C   0  0  0  0  0  0  0  0  0  0  0  0
   11.3891   -5.4880    0.0000 C   0  0  0  0  0  0  0  0  0  0  0  0
   11.3995   -4.6717    0.0000 C   0  0  0  0  0  0  0  0  0  0  0  0
   10.6963   -4.2536    0.0000 C   0  0  0  0  0  0  0  0  0  0  0  0
    9.9813   -4.6578    0.0000 C   0  0  0  0  0  0  0  0  0  0  0  0
    9.9744   -5.4729    0.0000 C   0  0  0  0  0  0  0  0  0  0  0  0
   12.1124   -4.2721    0.0000 F   0  0  0  0  0  0  0  0  0  0  0  0
  1  2  1  0
  2  3  2  0
  3  4  1  0
  4  5  1  0
  5  1  2  0
  3  6  1  0
  6  7  1  0
  7  8  1  0
  7  9  1  0
  2 10  1  0
 10 11  2  0
 10 12  1  0
 12 13  1  0
 13 14  1  0
 15 16  2  0
 16 17  1  0
 17 18  2  0
 18 19  1  0
 19 20  2  0
 20 15  1  0
  5 15  1  0
 17 21  1  0
M  END
> <chembl_id>
CHEMBL3970514

> <chembl_pref_name>
None

$$$$

     RDKit          2D

 42 43  0  0  0  0  0  0  0  0999 V2000
   17.6563  -14.3215    0.0000 C   0  0  0  0  0  0  0  0  0  0  0  0
   17.2518  -15.0314    0.0000 Si  0  0  0  0  0  4  0  0  0  0  0  0
   18.0688  -15.0267    0.0000 C   0  0  0  0  0  0  0  0  0  0  0  0
   18.0690  -15.8486    0.0000 C   0  0  0  0  0  0  0  0  0  0  0  0
   17.2518  -15.8486    0.0000 C   0  0  0  0  0  0  0  0  0  0  0  0
   17.6604  -16.5563    0.0000 C   0  0  0  0  0  0  0  0  0  0  0  0
   11.5988  -13.3984    0.0000 C   0  0  0  0  0  0  0  0  0  0  0  0
   12.3023  -13.8070    0.0000 C   0  0  0  0  0  0  0  0  0  0  0  0
   13.0142  -13.3984    0.0000 C   0  0  0  0  0  0  0  0  0  0  0  0
   13.0142  -12.5813    0.0000 O   0  0  0  0  0  0  0  0  0  0  0  0
   13.7178  -12.1727    0.0000 C   0  0  0  0  0  0  0  0  0  0  0  0
   13.7178  -13.8070    0.0000 C   0  0  0  0  0  0  0  0  0  0  0  0
   13.7178  -14.6242    0.0000 C   0  0  0  0  0  0  0  0  0  0  0  0
   14.4255  -13.3984    0.0000 C   0  0  0  0  0  0  0  0  0  0  0  0
   14.4639  -12.6251    0.0000 O   0  0  0  0  0  0  0  0  0  0  0  0
   15.1332  -13.8070    0.0000 O   0  0  0  0  0  0  0  0  0  0  0  0
   15.8368  -13.3984    0.0000 C   0  0  0  0  0  0  0  0  0  0  0  0
   16.5445  -13.8070    0.0000 C   0  0  0  0  0  0  0  0  0  0  0  0
   16.5445  -14.6242    0.0000 O   0  0  0  0  0  0  0  0  0  0  0  0
   15.8368  -12.5812    0.0000 C   0  0  0  0  0  0  0  0  0  0  0  0
   16.5445  -12.1727    0.0000 C   0  0  0  0  0  0  0  0  0  0  0  0
   16.5031  -11.3028    0.0000 C   0  0  0  0  0  0  0  0  0  0  0  0
   15.6964  -10.9094    0.0000 C   0  0  0  0  0  0  0  0  0  0  0  0
   14.8401  -11.3043    0.0000 C   0  0  0  0  0  0  0  0  0  0  0  0
   14.1325  -10.9068    0.0000 C   0  0  0  0  0  0  0  0  0  0  0  0
   14.1245  -10.0897    0.0000 O   0  0  0  0  0  0  0  0  0  0  0  0
   13.4128   -9.6881    0.0000 C   0  0  0  0  0  0  0  0  0  0  0  0
   12.7074  -10.1046    0.0000 C   0  0  0  0  0  0  0  0  0  0  0  0
   12.9600  -10.8818    0.0000 C   0  0  0  0  0  0  0  0  0  0  0  0
   12.3023  -11.3555    0.0000 N   0  0  0  0  0  0  0  0  0  0  0  0
   12.3023  -12.1727    0.0000 C   0  0  0  0  0  0  0  0  0  0  0  0
   11.5988  -12.5813    0.0000 C   0  0  0  0  0  0  0  0  0  0  0  0
   10.8869  -12.1727    0.0000 C   0  0  0  0  0  0  0  0  0  0  0  0
   11.6378  -10.8818    0.0000 N   0  0  0  0  0  0  0  0  0  0  0  0
   11.8902  -10.1046    0.0000 N   0  0  0  0  0  0  0  0  0  0  0  0
   13.4289  -11.3224    0.0000 O   0  0  0  0  0  0  0  0  0  0  0  0
   14.7434  -12.1215    0.0000 C   0  0  0  0  0  0  0  0  0  0  0  0
   15.4824  -12.1028    0.0000 O   0  0  0  0  0  0  0  0  0  0  0  0
   15.8330  -11.5123    0.0000 C   0  0  0  0  0  0  0  0  0  0  0  0
   12.3023  -14.6242    0.0000 O   0  0  0  0  0  0  0  0  0  0  0  0
   11.5988  -15.0287    0.0000 C   0  0  0  0  0  0  0  0  0  0  0  0
   16.5445  -16.2586    0.0000 C   0  0  0  0  0  0  0  0  0  0  0  0
  2  1  1  0
  3  2  1  0
  5  4  1  0
  6  5  1  0
  7  8  1  0
  8  9  1  0
  9 10  1  6
 10 11  1  0
  9 12  1  0
 12 13  1  6
 12 14  1  0
 14 15  2  0
 14 16  1  0
 16 17  1  0
 17 18  1  6
 18 19  1  0
 17 20  1  0
 20 21  1  0
 22 21  1  0
 23 22  1  0
 24 23  2  0
 25 24  1  0
 26 25  1  0
 27 26  1  0
 28 27  1  0
 29 28  2  0
 30 29  1  0
 31 30  1  0
 32 31  1  0
  7 32  1  0
 32 33  1  6
 34 30  1  0
 35 34  2  0
 28 35  1  0
 25 36  2  0
 24 37  1  0
 20 38  1  1
 38 39  1  0
  8 40  1  1
 40 41  1  0
 19  2  1  0
  2  5  1  0
  5 42  1  0
M  END
> <chembl_id>
CHEMBL4096191

> <chembl_pref_name>
None

$$$$

     RDKit          2D

 21 23  0  0  0  0  0  0  0  0999 V2000
    0.3542   -0.1167    0.0000 C   0  0  0  0  0  0  0  0  0  0  0  0
   -2.5208   -0.1167    0.0000 N   0  0  0  0  0  0  0  0  0  0  0  0
   -0.3625   -1.3417    0.0000 C   0  0  0  0  0  0  0  0  0  0  0  0
   -0.3625    1.1458    0.0000 C   0  0  0  0  0  0  0  0  0  0  0  0
   -1.8125   -1.3417    0.0000 C   0  0  0  0  0  0  0  0  0  0  0  0
   -1.8125    1.1333    0.0000 C   0  0  0  0  0  0  0  0  0  0  0  0
    1.3792    0.9250    0.0000 C   0  0  0  0  0  0  0  0  0  0  0  0
    1.3667   -1.1042    0.0000 C   0  0  0  0  0  0  0  0  0  0  0  0
   -3.9708   -0.1167    0.0000 C   0  0  0  0  0  0  0  0  0  0  0  0
    2.5542   -0.2792    0.0000 C   0  0  0  0  0  0  0  0  0  0  0  0
    1.5042   -2.5167    0.0000 C   0  0  0  0  0  0  0  0  0  0  0  0
    1.3042    2.3583    0.0000 C   0  0  0  0  0  0  0  0  0  0  0  0
    2.6375    0.2833    0.0000 C   0  0  0  0  0  0  0  0  0  0  0  0
   -3.9708   -1.5417    0.0000 C   0  0  0  0  0  0  0  0  0  0  0  0
   -3.9708    1.3333    0.0000 C   0  0  0  0  0  0  0  0  0  0  0  0
    3.8625   -0.9000    0.0000 C   0  0  0  0  0  0  0  0  0  0  0  0
    2.7917   -3.1167    0.0000 C   0  0  0  0  0  0  0  0  0  0  0  0
    2.4917    3.1208    0.0000 C   0  0  0  0  0  0  0  0  0  0  0  0
    3.8417    1.0708    0.0000 C   0  0  0  0  0  0  0  0  0  0  0  0
    3.7625    2.5000    0.0000 C   0  0  0  0  0  0  0  0  0  0  0  0
    3.9625   -2.2917    0.0000 C   0  0  0  0  0  0  0  0  0  0  0  0
  2  6  1  0
  3  1  1  0
  4  1  1  0
  5  3  1  0
  6  4  1  0
  7  1  1  0
  8  1  1  0
  9  2  1  0
 10  8  2  0
 11  8  1  0
 12  7  1  0
 13  7  2  0
 14  9  1  0
 15  9  1  0
 16 10  1  0
 17 11  2  0
 18 12  2  0
 19 13  1  0
 20 19  2  0
 21 17  1  0
  5  2  1  0
 16 21  2  0
 18 20  1  0
M  END
> <chembl_id>
CHEMBL277382

> <chembl_pref_name>
PRODIPINE

$$$$

     RDKit          2D

  8  7  0  0  0  0  0  0  0  0999 V2000
  -21.0080  -11.4027    0.0000 C   0  0  0  0  0  0  0  0  0  0  0  0
  -20.2936  -10.9902    0.0000 C   0  0  0  0  0  0  0  0  0  0  0  0
  -19.5791  -11.4027    0.0000 C   0  0  0  0  0  0  0  0  0  0  0  0
  -18.8646  -10.9902    0.0000 S   0  0  0  0  0  0  0  0  0  0  0  0
  -18.1502  -11.4027    0.0000 O   0  0  0  0  0  0  0  0  0  0  0  0
  -19.0781  -10.1933    0.0000 O   0  0  0  0  0  0  0  0  0  0  0  0
  -18.2813  -10.4068    0.0000 O   0  0  0  0  0  0  0  0  0  0  0  0
  -21.7225  -10.9902    0.0000 N   0  0  0  0  0  0  0  0  0  0  0  0
  1  2  1  0
  2  3  1  0
  3  4  1  0
  4  5  1  0
  4  6  2  0
  4  7  2  0
  1  8  1  0
M  END
> <chembl_id>
CHEMBL149082

> <chembl_pref_name>
TRAMIPROSATE

$$$$

     RDKit          2D

 39 43  0  0  0  0  0  0  0  0999 V2000
   -3.3671   -0.3335    0.0000 C   0  0  0  0  0  0  0  0  0  0  0  0
   -3.3670    0.4915    0.0000 C   0  0  0  0  0  0  0  0  0  0  0  0
   -2.6526    0.9039    0.0000 C   0  0  0  0  0  0  0  0  0  0  0  0
   -1.9381    0.4914    0.0000 C   0  0  0  0  0  0  0  0  0  0  0  0
   -1.9381   -0.3336    0.0000 C   0  0  0  0  0  0  0  0  0  0  0  0
   -2.6526   -0.7461    0.0000 C   0  0  0  0  0  0  0  0  0  0  0  0
   -2.6526   -1.5711    0.0000 C   0  0  0  0  0  0  0  0  0  0  0  0
   -1.9381   -1.9836    0.0000 C   0  0  0  0  0  0  0  0  0  0  0  0
   -1.2237   -1.5711    0.0000 C   0  0  0  0  0  0  0  0  0  0  0  0
   -1.2236   -0.7461    0.0000 C   0  0  0  0  0  0  0  0  0  0  0  0
   -3.3671   -1.9835    0.0000 C   0  0  0  0  0  0  0  0  0  0  0  0
   -3.3671   -2.8085    0.0000 C   0  0  0  0  0  0  0  0  0  0  0  0
   -2.6526   -3.2211    0.0000 C   0  0  0  0  0  0  0  0  0  0  0  0
   -1.9381   -2.8086    0.0000 C   0  0  0  0  0  0  0  0  0  0  0  0
   -1.2237   -3.2211    0.0000 C   0  0  0  0  0  0  0  0  0  0  0  0
   -0.5092   -2.8086    0.0000 C   0  0  0  0  0  0  0  0  0  0  0  0
   -0.5092   -1.9836    0.0000 C   0  0  0  0  0  0  0  0  0  0  0  0
   -0.5092   -0.3336    0.0000 C   0  0  0  0  0  0  0  0  0  0  0  0
    0.2053   -1.5711    0.0000 C   0  0  0  0  0  0  0  0  0  0  0  0
    0.2053   -0.7461    0.0000 C   0  0  0  0  0  0  0  0  0  0  0  0
   -4.0816   -3.2210    0.0000 O   0  0  0  0  0  0  0  0  0  0  0  0
   -4.0815    0.9040    0.0000 S   0  0  0  0  0  0  0  0  0  0  0  0
   -4.8544    0.5567    0.0000 C   0  0  0  0  0  0  0  0  0  0  0  0
   -3.6690    1.6184    0.0000 O   0  0  0  0  0  0  0  0  0  0  0  0
   -4.4745    1.6505    0.0000 O   0  0  0  0  0  0  0  0  0  0  0  0
    0.2053   -2.3961    0.0000 H   0  0  0  0  0  0  0  0  0  0  0  0
    1.4748   -1.1586    0.0000 C   0  0  0  0  0  0  0  0  0  0  0  0
    0.9899   -0.4912    0.0000 C   0  0  0  0  0  0  0  0  0  0  0  0
    0.9899   -1.8260    0.0000 C   0  0  0  0  0  0  0  0  0  0  0  0
    0.2136    0.0744    0.0000 C   0  0  0  0  0  0  0  0  0  0  0  0
   -0.5092   -1.1586    0.0000 H   0  0  0  0  0  0  0  0  0  0  0  0
    1.0217    0.3370    0.0000 O   0  0  0  0  0  0  0  0  0  0  0  0
    1.6771   -0.0346    0.0000 C   0  0  0  0  0  0  0  0  0  0  0  0
    2.4660   -0.2419    0.0000 C   0  0  0  0  0  0  0  0  0  0  0  0
    1.7513    0.7657    0.0000 F   0  0  0  0  0  0  0  0  0  0  0  0
    2.3643    0.4219    0.0000 F   0  0  0  0  0  0  0  0  0  0  0  0
    3.2629   -0.4554    0.0000 F   0  0  0  0  0  0  0  0  0  0  0  0
    3.2362    0.0538    0.0000 F   0  0  0  0  0  0  0  0  0  0  0  0
    3.0181   -0.8550    0.0000 F   0  0  0  0  0  0  0  0  0  0  0  0
  1  2  2  0
  2  3  1  0
  3  4  2  0
  4  5  1  0
  5  6  2  0
  1  6  1  0
 10  5  1  1
 11 12  1  0
 12 13  1  0
 13 14  2  0
  7 11  1  0
 14  8  1  0
  7  8  1  0
 15 16  1  0
 16 17  1  0
  9  8  2  0
 14 15  1  0
 19 20  1  0
 18 20  1  0
 18 10  1  0
 10  9  1  0
 17 19  1  0
  9 17  1  0
 12 21  2  0
  2 22  1  0
 22 23  1  0
 22 24  2  0
 22 25  2  0
 17 26  1  1
 27 28  1  0
 27 29  1  0
 28 20  1  0
 19 29  1  0
 20 30  1  1
 19 31  1  6
 28 32  1  1
 28 33  1  6
 33 34  1  0
 33 35  1  0
 33 36  1  0
 34 37  1  0
 34 38  1  0
 34 39  1  0
M  END
> <chembl_id>
CHEMBL3989936

> <chembl_pref_name>
VILAPRISAN

$$$$

     RDKit          2D

  8  8  0  0  0  0  0  0  0  0999 V2000
    0.8977    1.8520    0.0000 S   0  0  0  0  0  0  0  0  0  0  0  0
    0.3144    2.4353    0.0000 S   0  0  0  0  0  0  0  0  0  0  0  0
   -0.5106    2.4353    0.0000 S   0  0  0  0  0  0  0  0  0  0  0  0
   -1.0940    1.8520    0.0000 S   0  0  0  0  0  0  0  0  0  0  0  0
   -1.0940    1.0270    0.0000 S   0  0  0  0  0  0  0  0  0  0  0  0
   -0.5106    0.4436    0.0000 S   0  0  0  0  0  0  0  0  0  0  0  0
    0.3144    0.4436    0.0000 S   0  0  0  0  0  0  0  0  0  0  0  0
    0.8977    1.0270    0.0000 S   0  0  0  0  0  0  0  0  0  0  0  0
  1  2  1  0
  2  3  1  0
  3  4  1  0
  4  5  1  0
  5  6  1  0
  6  7  1  0
  7  8  1  0
  8  1  1  0
M  END
> <chembl_id>
CHEMBL1235452

> <chembl_pref_name>
SULFUR

$$$$

     RDKit          2D

 38 40  0  0  0  0  0  0  0  0999 V2000
   -5.3766    1.3120    0.0000 C   0  0  0  0  0  0  0  0  0  0  0  0
   -6.0911    0.8995    0.0000 C   0  0  0  0  0  0  0  0  0  0  0  0
   -6.0911    0.0745    0.0000 C   0  0  0  0  0  0  0  0  0  0  0  0
   -5.3766   -0.3380    0.0000 C   0  0  0  0  0  0  0  0  0  0  0  0
   -4.6622    0.0745    0.0000 C   0  0  0  0  0  0  0  0  0  0  0  0
   -4.6622    0.8995    0.0000 C   0  0  0  0  0  0  0  0  0  0  0  0
   -3.9477    1.3120    0.0000 N   0  0  0  0  0  0  0  0  0  0  0  0
   -3.9477   -0.3380    0.0000 C   0  0  0  0  0  0  0  0  0  0  0  0
   -3.2332    0.0745    0.0000 C   0  0  0  0  0  0  0  0  0  0  0  0
   -3.2332    0.8995    0.0000 C   0  0  0  0  0  0  0  0  0  0  0  0
   -2.5188   -0.3380    0.0000 C   0  0  0  0  0  0  0  0  0  0  0  0
   -1.8043    0.0745    0.0000 N   0  0  0  0  0  0  0  0  0  0  0  0
   -3.9477   -1.1630    0.0000 O   0  0  0  0  0  0  0  0  0  0  0  0
   -2.5188   -1.1630    0.0000 O   0  0  0  0  0  0  0  0  0  0  0  0
   -1.0898   -1.1630    0.0000 C   0  0  0  0  0  0  0  0  0  0  0  0
   -1.0898   -0.3380    0.0000 C   0  0  0  0  0  0  0  0  0  0  0  0
   -0.3754    0.0745    0.0000 C   0  0  0  0  0  0  0  0  0  0  0  0
   -0.3754   -1.5755    0.0000 C   0  0  0  0  0  0  0  0  0  0  0  0
    0.3391   -1.1630    0.0000 C   0  0  0  0  0  0  0  0  0  0  0  0
    0.3391   -0.3380    0.0000 C   0  0  0  0  0  0  0  0  0  0  0  0
   -0.9535    1.3510    0.0000 C   0  0  0  0  0  0  0  0  0  0  0  0
   -0.3754    0.8995    0.0000 C   0  0  0  0  0  0  0  0  0  0  0  0
   -0.3754   -2.4005    0.0000 O   0  0  0  0  0  0  0  0  0  0  0  0
   -0.3242    1.7923    0.0000 C   0  0  0  0  0  0  0  0  0  0  0  0
    0.3597    1.2741    0.0000 C   0  0  0  0  0  0  0  0  0  0  0  0
    1.0310   -1.6124    0.0000 C   0  0  0  0  0  0  0  0  0  0  0  0
    1.7229   -1.1630    0.0000 C   0  0  0  0  0  0  0  0  0  0  0  0
    1.7233   -2.0444    0.0000 C   0  0  0  0  0  0  0  0  0  0  0  0
    0.9370   -2.4800    0.0000 C   0  0  0  0  0  0  0  0  0  0  0  0
    2.0779   -0.4093    0.0000 H   0  0  0  0  0  0  0  0  0  0  0  0
    2.4376   -0.7106    0.0000 H   0  0  0  0  0  0  0  0  0  0  0  0
    2.5494   -1.1787    0.0000 H   0  0  0  0  0  0  0  0  0  0  0  0
    2.6022   -1.8997    0.0000 H   0  0  0  0  0  0  0  0  0  0  0  0
    2.4718   -2.4691    0.0000 H   0  0  0  0  0  0  0  0  0  0  0  0
    1.9950   -2.7836    0.0000 H   0  0  0  0  0  0  0  0  0  0  0  0
    1.3994   -3.0493    0.0000 H   0  0  0  0  0  0  0  0  0  0  0  0
    0.8633   -3.2843    0.0000 H   0  0  0  0  0  0  0  0  0  0  0  0
    0.4255   -2.9844    0.0000 H   0  0  0  0  0  0  0  0  0  0  0  0
  1  2  2  0
  2  3  1  0
  3  4  2  0
  4  5  1  0
  5  6  2  0
  1  6  1  0
  8  9  1  0
  9 10  2  0
  7 10  1  0
  5  8  1  0
  7  6  1  0
 11 12  1  0
  9 11  1  0
  8 13  2  0
 14 11  2  0
 15 16  1  0
 12 16  1  0
 18 19  1  0
 19 20  2  0
 17 20  1  0
 15 18  2  0
 17 16  2  0
 21 22  1  0
 17 22  1  0
 18 23  1  0
 22 24  1  0
 22 25  1  0
 19 26  1  0
 26 27  1  0
 26 28  1  0
 26 29  1  0
 27 30  1  0
 27 31  1  0
 27 32  1  0
 28 33  1  0
 28 34  1  0
 28 35  1  0
 29 36  1  0
 29 37  1  0
 29 38  1  0
M  ISO  8  30   2  31   2  32   2  33   2  34   2  35   2  36   2  37   2
M  ISO  1  38   2
M  END
> <chembl_id>
CHEMBL4297603

> <chembl_pref_name>
DEUTIVACAFTOR

$$$$

     RDKit          2D

 16 16  0  0  0  0  0  0  0  0999 V2000
    3.5875   -6.1250    0.0000 Cl  0  0  0  0  0  0  0  0  0  0  0  0
    1.1292   -5.7542    0.0000 C   0  0  0  0  0  0  0  0  0  0  0  0
    1.7042   -6.1792    0.0000 N   0  0  0  0  0  0  0  0  0  0  0  0
   -1.0208   -5.0792    0.0000 C   0  0  0  0  0  0  0  0  0  0  0  0
    2.0625   -5.0875    0.0000 N   0  0  0  0  0  0  0  0  0  0  0  0
   -0.4458   -4.6667    0.0000 O   0  0  0  0  0  0  0  0  0  0  0  0
   -0.0875   -5.7542    0.0000 C   0  0  0  0  0  0  0  0  0  0  0  0
    0.5167   -6.1125    0.0000 C   0  0  0  0  0  0  0  0  0  0  0  0
    2.2792   -5.7542    0.0000 C   0  0  0  0  0  0  0  0  0  0  0  0
   -0.8000   -5.7542    0.0000 C   0  0  0  0  0  0  0  0  0  0  0  0
    1.3542   -5.0875    0.0000 C   0  0  0  0  0  0  0  0  0  0  0  0
    0.1292   -5.0792    0.0000 C   0  0  0  0  0  0  0  0  0  0  0  0
   -1.6958   -4.8667    0.0000 O   0  0  0  0  0  0  0  0  0  0  0  0
    1.7042   -6.8875    0.0000 C   0  0  0  0  0  0  0  0  0  0  0  0
   -1.4208   -6.1042    0.0000 C   0  0  0  0  0  0  0  0  0  0  0  0
   -2.0333   -5.7417    0.0000 C   0  0  0  0  0  0  0  0  0  0  0  0
  3  2  1  0
  4 10  1  0
  5 11  1  0
  6 12  1  0
  7  8  1  6
  8  2  1  0
  9  3  1  0
 10  7  1  0
 11  2  2  0
 12  7  1  0
 13  4  2  0
 14  3  1  0
 10 15  1  6
 16 15  1  0
  9  5  2  0
  4  6  1  0
M  END
> <chembl_id>
CHEMBL1200330

> <chembl_pref_name>
PILOCARPINE HYDROCHLORIDE

$$$$

     RDKit          2D

 13 14  0  0  0  0  0  0  0  0999 V2000
   -0.2875    0.8833    0.0000 N   0  0  0  0  0  0  0  0  0  0  0  0
   -0.7333   -0.4792    0.0000 C   0  0  0  0  0  0  0  0  0  0  0  0
   -1.4458    1.7208    0.0000 N   0  0  0  0  0  0  0  0  0  0  0  0
   -2.1625   -0.4792    0.0000 C   0  0  0  0  0  0  0  0  0  0  0  0
   -2.6000    0.8833    0.0000 C   0  0  0  0  0  0  0  0  0  0  0  0
    1.1375    0.8833    0.0000 C   0  0  0  0  0  0  0  0  0  0  0  0
   -0.1458   -1.8625    0.0000 O   0  0  0  0  0  0  0  0  0  0  0  0
   -3.9833    1.2625    0.0000 C   0  0  0  0  0  0  0  0  0  0  0  0
    1.8500   -0.3417    0.0000 C   0  0  0  0  0  0  0  0  0  0  0  0
    1.8375    2.1208    0.0000 C   0  0  0  0  0  0  0  0  0  0  0  0
    3.2542    2.1333    0.0000 C   0  0  0  0  0  0  0  0  0  0  0  0
    3.2750   -0.3417    0.0000 C   0  0  0  0  0  0  0  0  0  0  0  0
    3.9792    0.8958    0.0000 C   0  0  0  0  0  0  0  0  0  0  0  0
  2  1  1  0
  3  1  1  0
  4  2  1  0
  5  3  2  0
  6  1  1  0
  7  2  2  0
  8  5  1  0
  9  6  2  0
 10  6  1  0
 11 10  2  0
 12  9  1  0
 13 11  1  0
  5  4  1  0
 12 13  2  0
M  END
> <chembl_id>
CHEMBL290916

> <chembl_pref_name>
EDARAVONE

$$$$

     RDKit          2D

 28 31  0  0  0  0  0  0  0  0999 V2000
    1.9288   -0.4166    0.0000 C   0  0  0  0  0  0  0  0  0  0  0  0
    2.7409   -0.2714    0.0000 C   0  0  0  0  0  0  0  0  0  0  0  0
    3.0212    0.5046    0.0000 C   0  0  0  0  0  0  0  0  0  0  0  0
    2.4894    1.1353    0.0000 C   0  0  0  0  0  0  0  0  0  0  0  0
    1.6773    0.9900    0.0000 C   0  0  0  0  0  0  0  0  0  0  0  0
    1.1455    1.6208    0.0000 C   0  0  0  0  0  0  0  0  0  0  0  0
    0.3333    1.4755    0.0000 C   0  0  0  0  0  0  0  0  0  0  0  0
    0.0530    0.6996    0.0000 C   0  0  0  0  0  0  0  0  0  0  0  0
    0.5849    0.0689    0.0000 C   0  0  0  0  0  0  0  0  0  0  0  0
    1.3970    0.2141    0.0000 C   0  0  0  0  0  0  0  0  0  0  0  0
    0.3046   -0.7070    0.0000 C   0  0  0  0  0  0  0  0  0  0  0  0
   -0.5076   -0.8522    0.0000 C   0  0  0  0  0  0  0  0  0  0  0  0
   -1.0394   -0.2215    0.0000 C   0  0  0  0  0  0  0  0  0  0  0  0
   -0.7591    0.5544    0.0000 C   0  0  0  0  0  0  0  0  0  0  0  0
   -1.4104    1.0608    0.0000 C   0  0  0  0  0  0  0  0  0  0  0  0
   -2.0932    0.5978    0.0000 C   0  0  0  0  0  0  0  0  0  0  0  0
   -1.8639   -0.1947    0.0000 C   0  0  0  0  0  0  0  0  0  0  0  0
   -1.3992   -0.9639    0.0000 C   0  0  0  0  0  0  0  0  0  0  0  0
    1.1167   -0.5618    0.0000 C   0  0  0  0  0  0  0  0  0  0  0  0
   -2.3703   -0.8460    0.0000 C   0  0  0  0  0  0  0  0  0  0  0  0
   -3.1875   -0.7332    0.0000 C   0  0  0  0  0  0  0  0  0  0  0  0
    3.8333    0.6498    0.0000 O   0  0  0  0  0  0  0  0  0  0  0  0
    0.8364   -1.3377    0.0000 O   0  0  0  0  0  0  0  0  0  0  0  0
   -2.0594   -1.6102    0.0000 O   0  0  0  0  0  0  0  0  0  0  0  0
   -3.6939   -1.3845    0.0000 O   0  0  0  0  0  0  0  0  0  0  0  0
   -0.5195    1.5253    0.0000 H   0  0  0  0  0  0  0  0  0  0  0  0
    1.2295   -0.6956    0.0000 H   0  0  0  0  0  0  0  0  0  0  0  0
   -0.5916    1.4641    0.0000 H   0  0  0  0  0  0  0  0  0  0  0  0
  1  2  1  0
  1 10  1  0
  2  3  1  0
  3  4  1  0
  3 22  2  0
  4  5  2  0
  5  6  1  0
 10  5  1  0
  6  7  1  0
  8  7  1  0
  8  9  1  0
 14  8  1  0
 10  9  1  0
  9 11  1  0
 10 19  1  1
 11 12  1  0
 11 23  1  1
 12 13  1  0
 13 14  1  0
 13 17  1  0
 13 18  1  1
 14 15  1  0
 15 16  1  0
 16 17  1  0
 17 20  1  1
 20 21  1  0
 20 24  2  0
 21 25  1  0
 14 26  1  6
  9 27  1  6
  8 28  1  1
M  END
> <chembl_id>
CHEMBL110739

> <chembl_pref_name>
CORTICOSTERONE

$$$$

     RDKit          2D

 36 36  0  0  0  0  0  0  0  0999 V2000
    6.1417   -6.2708    0.0000 C   0  0  0  0  0  0  0  0  0  0  0  0
    6.1333   -7.6875    0.0000 C   0  0  0  0  0  0  0  0  0  0  0  0
    5.5292   -6.6250    0.0000 C   0  0  0  0  0  0  0  0  0  0  0  0
    5.5250   -7.3292    0.0000 C   0  0  0  0  0  0  0  0  0  0  0  0
    6.1458   -5.5625    0.0000 O   0  0  0  0  0  0  0  0  0  0  0  0
    6.1292   -8.3958    0.0000 O   0  0  0  0  0  0  0  0  0  0  0  0
    6.7542   -6.6292    0.0000 O   0  0  0  0  0  0  0  0  0  0  0  0
    6.7500   -7.3375    0.0000 O   0  0  0  0  0  0  0  0  0  0  0  0
    2.9958   -7.0917    0.0000 C   0  0  0  0  0  0  0  0  0  0  0  0
    1.7750   -7.0917    0.0000 C   0  0  0  0  0  0  0  0  0  0  0  0
    2.3833   -6.7375    0.0000 C   0  0  0  0  0  0  0  0  0  0  0  0
    1.7750   -7.8000    0.0000 C   0  0  0  0  0  0  0  0  0  0  0  0
    2.9958   -7.8000    0.0000 C   0  0  0  0  0  0  0  0  0  0  0  0
    2.3833   -8.1542    0.0000 N   0  0  0  0  0  0  0  0  0  0  0  0
    3.6125   -6.7375    0.0000 C   0  0  0  0  0  0  0  0  0  0  0  0
    1.1583   -6.7375    0.0000 C   0  0  0  0  0  0  0  0  0  0  0  0
    2.3833   -5.3208    0.0000 C   0  0  0  0  0  0  0  0  0  0  0  0
    3.0000   -4.9667    0.0000 C   0  0  0  0  0  0  0  0  0  0  0  0
    3.6125   -6.0292    0.0000 O   0  0  0  0  0  0  0  0  0  0  0  0
    1.1583   -6.0292    0.0000 O   0  0  0  0  0  0  0  0  0  0  0  0
    1.1583   -8.1500    0.0000 C   0  0  0  0  0  0  0  0  0  0  0  0
    4.2250   -7.0917    0.0000 O   0  0  0  0  0  0  0  0  0  0  0  0
    0.5458   -7.0917    0.0000 O   0  0  0  0  0  0  0  0  0  0  0  0
    3.6125   -8.1500    0.0000 C   0  0  0  0  0  0  0  0  0  0  0  0
    3.6125   -5.3208    0.0000 Cl  0  0  0  0  0  0  0  0  0  0  0  0
   -1.2958   -8.1500    0.0000 N   0  0  0  0  0  0  0  0  0  0  0  0
    1.7750   -4.9667    0.0000 C   0  0  0  0  0  0  0  0  0  0  0  0
    0.5458   -7.7958    0.0000 O   0  0  0  0  0  0  0  0  0  0  0  0
    3.0000   -4.2583    0.0000 C   0  0  0  0  0  0  0  0  0  0  0  0
   -0.6792   -7.7958    0.0000 C   0  0  0  0  0  0  0  0  0  0  0  0
   -0.0667   -6.7375    0.0000 C   0  0  0  0  0  0  0  0  0  0  0  0
   -0.0667   -8.1500    0.0000 C   0  0  0  0  0  0  0  0  0  0  0  0
    4.8375   -6.7375    0.0000 C   0  0  0  0  0  0  0  0  0  0  0  0
    1.7708   -4.2625    0.0000 C   0  0  0  0  0  0  0  0  0  0  0  0
   -0.6792   -7.0917    0.0000 C   0  0  0  0  0  0  0  0  0  0  0  0
    2.3875   -3.9042    0.0000 C   0  0  0  0  0  0  0  0  0  0  0  0
  2  4  1  0
  3  1  1  0
  4  3  2  0
  5  1  2  0
  6  2  2  0
  7  1  1  0
  8  2  1  0
 10 11  1  0
 11  9  1  0
 12 10  2  0
 13  9  2  0
 14 13  1  0
 15  9  1  0
 16 10  1  0
 17 11  1  0
 18 17  2  0
 19 15  2  0
 20 16  2  0
 21 12  1  0
 22 15  1  0
 23 16  1  0
 24 13  1  0
 25 18  1  0
 26 30  1  0
 27 17  1  0
 28 21  1  0
 29 18  1  0
 30 32  1  0
 31 23  1  0
 32 28  1  0
 33 22  1  0
 34 27  2  0
 35 31  1  0
 36 29  2  0
 14 12  1  0
 34 36  1  0
M  END
> <chembl_id>
CHEMBL1200984

> <chembl_pref_name>
AMLODIPINE MALEATE

$$$$

     RDKit          2D

  7  5  0  0  0  0  0  0  0  0999 V2000
    7.7417   -5.8417    0.0000 Na  0  0  0  0  0 15  0  0  0  0  0  0
    6.3667   -6.1000    0.0000 C   0  0  0  0  0  0  0  0  0  0  0  0
    6.9875   -5.7542    0.0000 O   0  0  0  0  0  0  0  0  0  0  0  0
    6.3667   -6.8125    0.0000 O   0  0  0  0  0  0  0  0  0  0  0  0
    5.7542   -5.7417    0.0000 C   0  0  0  0  0  0  0  0  0  0  0  0
    5.7542   -5.0375    0.0000 O   0  0  0  0  0  0  0  0  0  0  0  0
    5.1417   -6.0917    0.0000 C   0  0  0  0  0  0  0  0  0  0  0  0
  3  2  1  0
  4  2  2  0
  5  2  1  0
  6  5  1  0
  7  5  1  0
M  CHG  2   1   1   3  -1
M  END
> <chembl_id>
CHEMBL1357

> <chembl_pref_name>
SODIUM LACTATE

$$$$

     RDKit          2D

 39 41  0  0  1  0  0  0  0  0999 V2000
    1.6125   -1.0167    0.0000 C   0  0  0  0  0  0  0  0  0  0  0  0
    0.8000   -0.6542    0.0000 C   0  0  0  0  0  0  0  0  0  0  0  0
    0.0375   -0.9792    0.0000 N   0  0  0  0  0  0  0  0  0  0  0  0
    2.2500   -0.5542    0.0000 N   0  0  0  0  0  0  0  0  0  0  0  0
   -1.5625   -0.5750    0.0000 C   0  0  0  0  0  0  0  0  0  0  0  0
   -2.3708   -0.9917    0.0000 O   0  0  0  0  0  0  0  0  0  0  0  0
    2.9167   -1.0125    0.0000 C   0  0  0  0  0  0  0  0  0  0  0  0
   -0.8000   -0.9792    0.0000 C   0  0  0  0  0  0  0  0  0  0  0  0
    1.8667   -1.7417    0.0000 C   0  0  0  0  0  0  0  0  0  0  0  0
   -3.1375   -0.6000    0.0000 C   0  0  0  0  0  0  0  0  0  0  0  0
    2.6542   -1.7417    0.0000 O   0  0  0  0  0  0  0  0  0  0  0  0
    3.5250   -0.6375    0.0000 C   0  0  0  0  0  0  0  0  0  0  0  0
   -1.8000    1.6958    0.0000 C   0  0  0  0  0  0  0  0  0  0  0  0
    3.5167    0.1333    0.0000 C   0  0  0  0  0  0  0  0  0  0  0  0
   -2.4750    0.5583    0.0000 C   0  0  0  0  0  0  0  0  0  0  0  0
   -2.4833    1.3208    0.0000 C   0  0  0  0  0  0  0  0  0  0  0  0
    2.1875    1.6458    0.0000 C   0  0  0  0  0  0  0  0  0  0  0  0
   -1.1375    1.3125    0.0000 N   0  0  0  0  0  0  0  0  0  0  0  0
    1.5250    1.2833    0.0000 C   0  0  0  0  0  0  0  0  0  0  0  0
    0.8000    0.1208    0.0000 O   0  0  0  0  0  0  0  0  0  0  0  0
   -1.5625    0.1958    0.0000 O   0  0  0  0  0  0  0  0  0  0  0  0
   -3.1375    0.1625    0.0000 C   0  0  0  0  0  0  0  0  0  0  0  0
    2.8542    0.5000    0.0000 C   0  0  0  0  0  0  0  0  0  0  0  0
    2.8417    1.2625    0.0000 C   0  0  0  0  0  0  0  0  0  0  0  0
    0.8667    1.6625    0.0000 C   0  0  0  0  0  0  0  0  0  0  0  0
   -1.7958    2.4958    0.0000 O   0  0  0  0  0  0  0  0  0  0  0  0
    4.1667    0.5208    0.0000 O   0  0  0  0  0  0  0  0  0  0  0  0
    0.1875    1.2958    0.0000 C   0  0  0  0  0  0  0  0  0  0  0  0
    0.2292   -1.6792    0.0000 C   0  0  0  0  0  0  0  0  0  0  0  0
   -3.8000   -0.9792    0.0000 C   0  0  0  0  0  0  0  0  0  0  0  0
    3.5042    1.6375    0.0000 O   0  0  0  0  0  0  0  0  0  0  0  0
   -0.4625    1.6833    0.0000 C   0  0  0  0  0  0  0  0  0  0  0  0
   -1.0083   -1.7375    0.0000 C   0  0  0  0  0  0  0  0  0  0  0  0
   -0.3708   -2.1625    0.0000 C   0  0  0  0  0  0  0  0  0  0  0  0
    1.5292    0.5208    0.0000 C   0  0  0  0  0  0  0  0  0  0  0  0
   -3.7958    0.5458    0.0000 C   0  0  0  0  0  0  0  0  0  0  0  0
   -3.8000   -1.7417    0.0000 C   0  0  0  0  0  0  0  0  0  0  0  0
   -4.4708   -0.6042    0.0000 C   0  0  0  0  0  0  0  0  0  0  0  0
   -1.7181   -1.3756    0.0000 H   0  0  0  0  0  0  0  0  0  0  0  0
  2  1  1  0
  3  2  1  0
  4  1  1  0
  8  5  1  0
  6  5  1  0
  7  4  2  0
  8  3  1  0
  9  1  2  0
 10  6  1  0
 11  9  1  0
 12  7  1  0
 13 16  1  0
 14 12  1  0
 15 22  1  0
 16 15  2  0
 17 24  1  0
 18 13  1  0
 19 17  2  0
 20  2  2  0
 21  5  2  0
 22 10  1  0
 23 14  1  0
 24 23  1  0
 25 19  1  0
 26 13  2  0
 27 14  2  0
 28 25  2  0
 29  3  1  0
 10 30  1  6
 24 31  1  1
 32 28  1  0
 33  8  1  0
 34 29  1  0
 35 19  1  0
 22 36  1  6
 37 30  1  0
 38 30  1  0
  7 11  1  0
 33 34  1  0
 18 32  1  0
  8 39  1  1
M  END
> <chembl_id>
CHEMBL2105600

> <chembl_pref_name>
VOLPRISTIN

$$$$

     RDKit          2D

 68 71  0  0  1  0  0  0  0  0999 V2000
   -1.7083  -10.6250    0.0000 C   0  0  0  0  0  0  0  0  0  0  0  0
   -1.7083  -11.3292    0.0000 C   0  0  0  0  0  0  0  0  0  0  0  0
   -1.0958  -10.2667    0.0000 C   0  0  0  0  0  0  0  0  0  0  0  0
   -1.0958   -9.5625    0.0000 N   0  0  0  0  0  0  0  0  0  0  0  0
    0.1292   -9.5625    0.0000 C   0  0  0  0  0  0  0  0  0  0  0  0
    3.1958  -13.4542    0.0000 C   0  0  0  0  0  0  0  0  0  0  0  0
    0.7417   -9.2042    0.0000 O   0  0  0  0  0  0  0  0  0  0  0  0
    3.8083  -13.8125    0.0000 C   0  0  0  0  0  0  0  0  0  0  0  0
    2.5833  -12.3917    0.0000 C   0  0  0  0  0  0  0  0  0  0  0  0
   -0.4833   -9.2042    0.0000 C   0  0  0  0  0  0  0  0  0  0  0  0
   -1.0958  -11.6792    0.0000 O   0  0  0  0  0  0  0  0  0  0  0  0
    3.1958  -12.7500    0.0000 C   0  0  0  0  0  0  0  0  0  0  0  0
    2.5833  -11.6875    0.0000 C   0  0  0  0  0  0  0  0  0  0  0  0
    1.3542   -9.5625    0.0000 C   0  0  0  0  0  0  0  0  0  0  0  0
    1.9708  -10.6250    0.0000 C   0  0  0  0  0  0  0  0  0  0  0  0
    1.3542  -10.2667    0.0000 C   0  0  0  0  0  0  0  0  0  0  0  0
    3.8083  -14.5167    0.0000 C   0  0  0  0  0  0  0  0  0  0  0  0
    1.9708  -11.3292    0.0000 C   0  0  0  0  0  0  0  0  0  0  0  0
    0.1292  -13.7875    0.0000 C   0  0  0  0  0  0  0  0  0  0  0  0
   -0.4833  -13.4375    0.0000 C   0  0  0  0  0  0  0  0  0  0  0  0
   -2.3250  -10.2708    0.0000 O   0  0  0  0  0  0  0  0  0  0  0  0
   -2.3167  -11.6792    0.0000 C   0  0  0  0  0  0  0  0  0  0  0  0
   -0.4833  -12.7292    0.0000 C   0  0  0  0  0  0  0  0  0  0  0  0
   -0.4833  -10.6208    0.0000 O   0  0  0  0  0  0  0  0  0  0  0  0
   -1.0917  -12.3792    0.0000 C   0  0  0  0  0  0  0  0  0  0  0  0
    0.1292  -10.2667    0.0000 O   0  0  0  0  0  0  0  0  0  0  0  0
    3.8042   -8.1458    0.0000 C   0  0  0  0  0  0  0  0  0  0  0  0
    1.9708   -9.2042    0.0000 C   0  0  0  0  0  0  0  0  0  0  0  0
    4.4250  -13.4542    0.0000 O   0  0  0  0  0  0  0  0  0  0  0  0
    0.1292  -14.4917    0.0000 C   0  0  0  0  0  0  0  0  0  0  0  0
   -1.0958  -10.9667    0.0000 O   0  0  0  0  0  0  0  0  0  0  0  0
    3.0542  -14.8667    0.0000 C   0  0  0  0  0  0  0  0  0  0  0  0
    3.1917   -8.5000    0.0000 C   0  0  0  0  0  0  0  0  0  0  0  0
    2.5833  -10.2667    0.0000 O   0  0  0  0  0  0  0  0  0  0  0  0
    1.9708   -8.5000    0.0000 C   0  0  0  0  0  0  0  0  0  0  0  0
    3.8083   -7.4375    0.0000 C   0  0  0  0  0  0  0  0  0  0  0  0
    0.7417  -14.8417    0.0000 C   0  0  0  0  0  0  0  0  0  0  0  0
    2.5833   -8.1417    0.0000 C   0  0  0  0  0  0  0  0  0  0  0  0
    0.7417  -15.5500    0.0000 C   0  0  0  0  0  0  0  0  0  0  0  0
    1.3583  -15.9000    0.0000 C   0  0  0  0  0  0  0  0  0  0  0  0
    1.9708  -15.5417    0.0000 C   0  0  0  0  0  0  0  0  0  0  0  0
   -2.3167  -12.3875    0.0000 C   0  0  0  0  0  0  0  0  0  0  0  0
    3.1958   -7.0833    0.0000 C   0  0  0  0  0  0  0  0  0  0  0  0
    2.5833  -13.8125    0.0000 O   0  0  0  0  0  0  0  0  0  0  0  0
   -1.7125   -9.2083    0.0000 C   0  0  0  0  0  0  0  0  0  0  0  0
    3.8083  -12.3917    0.0000 O   0  0  0  0  0  0  0  0  0  0  0  0
   -1.7042  -12.7375    0.0000 C   0  0  0  0  0  0  0  0  0  0  0  0
    2.6792  -15.5417    0.0000 C   0  0  0  0  0  0  0  0  0  0  0  0
    2.5750   -7.4375    0.0000 C   0  0  0  0  0  0  0  0  0  0  0  0
   -1.1000  -13.7917    0.0000 O   0  0  0  0  0  0  0  0  0  0  0  0
    4.4167   -8.5042    0.0000 O   0  0  0  0  0  0  0  0  0  0  0  0
    1.9708  -12.7500    0.0000 C   0  0  0  0  0  0  0  0  0  0  0  0
    4.4208   -7.0875    0.0000 O   0  0  0  0  0  0  0  0  0  0  0  0
   -0.4833   -8.5000    0.0000 C   0  0  0  0  0  0  0  0  0  0  0  0
    0.7417  -13.4292    0.0000 C   0  0  0  0  0  0  0  0  0  0  0  0
    4.4042  -14.9000    0.0000 C   0  0  0  0  0  0  0  0  0  0  0  0
    1.3542  -11.6875    0.0000 C   0  0  0  0  0  0  0  0  0  0  0  0
    2.5833   -9.5625    0.0000 C   0  0  0  0  0  0  0  0  0  0  0  0
   -2.9292  -11.3292    0.0000 C   0  0  0  0  0  0  0  0  0  0  0  0
    1.9708  -13.4542    0.0000 C   0  0  0  0  0  0  0  0  0  0  0  0
    5.0292   -8.1542    0.0000 C   0  0  0  0  0  0  0  0  0  0  0  0
   -1.7125  -13.4375    0.0000 C   0  0  0  0  0  0  0  0  0  0  0  0
    3.0375  -16.1500    0.0000 C   0  0  0  0  0  0  0  0  0  0  0  0
   -1.7083   -8.5000    0.0000 C   0  0  0  0  0  0  0  0  0  0  0  0
   -1.0958   -8.1458    0.0000 C   0  0  0  0  0  0  0  0  0  0  0  0
   -1.0881  -13.3792    0.0000 H   0  0  0  0  0  0  0  0  0  0  0  0
    0.4868  -10.0600    0.0000 H   0  0  0  0  0  0  0  0  0  0  0  0
    0.3841   -8.7067    0.0000 H   0  0  0  0  0  0  0  0  0  0  0  0
  2  1  1  0
  3  1  1  0
  4  3  1  0
  5 10  1  0
  6 12  1  0
  7  5  1  0
  8  6  1  0
  9 13  2  0
 10  4  1  0
 11  2  1  0
 12  9  1  0
 13 18  1  0
 14  7  1  0
 15 16  1  0
 16 14  1  0
 17 32  1  0
 18 15  1  0
 19 20  1  0
 20 23  1  0
 21  1  2  0
 22  2  1  0
 23 25  1  0
 24  3  2  0
 25 11  1  0
 26  5  2  0
 27 33  1  0
 28 14  1  0
 29  8  2  0
 30 19  2  0
  2 31  1  1
 32 48  1  0
 33 38  1  0
 34 15  2  0
 35 28  1  0
 36 43  1  0
 37 30  1  0
 38 35  1  6
 39 37  2  0
 40 39  1  0
 41 40  2  0
 42 22  1  0
 43 49  1  0
  6 44  1  6
 45  4  1  0
 12 46  1  1
 47 42  1  0
 48 41  1  0
 49 38  1  0
 20 50  1  1
 27 51  1  6
 52  9  1  0
 36 53  1  1
 54 10  1  0
 55 19  1  0
 17 56  1  6
 18 57  1  1
 28 58  1  1
 22 59  1  1
 60 44  1  0
 61 51  1  0
 62 50  1  0
 48 63  1  6
 64 45  1  0
 65 64  1  0
 25 66  1  1
 25 47  1  0
 65 54  1  0
 36 27  1  0
 17  8  1  0
 14 67  1  1
 10 68  1  6
M  END
> <chembl_id>
CHEMBL413

> <chembl_pref_name>
SIROLIMUS

$$$$

     RDKit          2D

 36 37  0  0  0  0  0  0  0  0999 V2000
    7.5417   -7.0417    0.0000 Cl  0  0  0  0  0  0  0  0  0  0  0  0
    3.8167   -3.9417    0.0000 C   0  0  0  0  0  0  0  0  0  0  0  0
    2.5875   -3.9542    0.0000 C   0  0  0  0  0  0  0  0  0  0  0  0
    3.2042   -4.3042    0.0000 C   0  0  0  0  0  0  0  0  0  0  0  0
    3.8167   -3.2292    0.0000 C   0  0  0  0  0  0  0  0  0  0  0  0
    2.5875   -3.2292    0.0000 C   0  0  0  0  0  0  0  0  0  0  0  0
    3.2042   -2.8667    0.0000 N   0  0  0  0  0  0  0  0  0  0  0  0
    4.4667   -6.4417    0.0000 N   0  0  0  0  0  0  0  0  0  0  0  0
    3.2042   -5.0125    0.0000 C   0  0  0  0  0  0  0  0  0  0  0  0
    4.4667   -4.3042    0.0000 C   0  0  0  0  0  0  0  0  0  0  0  0
    1.9792   -4.3167    0.0000 C   0  0  0  0  0  0  0  0  0  0  0  0
    3.8042   -6.0750    0.0000 C   0  0  0  0  0  0  0  0  0  0  0  0
    3.8167   -5.3542    0.0000 C   0  0  0  0  0  0  0  0  0  0  0  0
    4.4542   -7.1667    0.0000 O   0  0  0  0  0  0  0  0  0  0  0  0
    4.9542   -6.1667    0.0000 O   0  0  0  0  0  0  0  0  0  0  0  0
    1.9667   -5.0292    0.0000 O   0  0  0  0  0  0  0  0  0  0  0  0
    4.4542   -5.0125    0.0000 O   0  0  0  0  0  0  0  0  0  0  0  0
    6.9250   -4.2375    0.0000 N   0  0  0  0  0  0  0  0  0  0  0  0
    5.0542   -3.9292    0.0000 O   0  0  0  0  0  0  0  0  0  0  0  0
    7.5417   -3.8542    0.0000 C   0  0  0  0  0  0  0  0  0  0  0  0
    1.3625   -3.9667    0.0000 O   0  0  0  0  0  0  0  0  0  0  0  0
    1.9500   -2.8542    0.0000 C   0  0  0  0  0  0  0  0  0  0  0  0
    4.4375   -2.8542    0.0000 C   0  0  0  0  0  0  0  0  0  0  0  0
    2.5875   -5.3625    0.0000 C   0  0  0  0  0  0  0  0  0  0  0  0
    8.1625   -4.1875    0.0000 C   0  0  0  0  0  0  0  0  0  0  0  0
    5.6917   -4.2667    0.0000 C   0  0  0  0  0  0  0  0  0  0  0  0
    3.2042   -6.4375    0.0000 C   0  0  0  0  0  0  0  0  0  0  0  0
    2.5875   -6.0750    0.0000 C   0  0  0  0  0  0  0  0  0  0  0  0
    6.3042   -3.9000    0.0000 C   0  0  0  0  0  0  0  0  0  0  0  0
    6.9250   -4.9375    0.0000 C   0  0  0  0  0  0  0  0  0  0  0  0
    0.7542   -4.3042    0.0000 C   0  0  0  0  0  0  0  0  0  0  0  0
    8.1750   -4.9042    0.0000 C   0  0  0  0  0  0  0  0  0  0  0  0
    8.7667   -3.8250    0.0000 C   0  0  0  0  0  0  0  0  0  0  0  0
    8.7792   -5.2542    0.0000 C   0  0  0  0  0  0  0  0  0  0  0  0
    9.3792   -4.1625    0.0000 C   0  0  0  0  0  0  0  0  0  0  0  0
    9.3917   -4.8667    0.0000 C   0  0  0  0  0  0  0  0  0  0  0  0
  3  4  1  0
  4  2  1  0
  5  2  2  0
  6  7  1  0
  7  5  1  0
  8 12  1  0
  9  4  1  0
 10  2  1  0
 11  3  1  0
 12 13  1  0
 13  9  2  0
 14  8  1  0
 15  8  2  0
 16 11  2  0
 17 10  2  0
 18 29  1  0
 19 10  1  0
 20 18  1  0
 21 11  1  0
 22  6  1  0
 23  5  1  0
 24  9  1  0
 25 20  1  0
 26 19  1  0
 27 28  1  0
 28 24  2  0
 29 26  1  0
 30 18  1  0
 31 21  1  0
 32 25  1  0
 33 25  2  0
 34 32  2  0
 35 33  1  0
 36 34  1  0
  6  3  2  0
 27 12  2  0
 36 35  2  0
M  CHG  2   8   1  14  -1
M  END
> <chembl_id>
CHEMBL1200326

> <chembl_pref_name>
NICARDIPINE HYDROCHLORIDE

$$$$

     RDKit          2D

 37 43  0  0  0  0  0  0  0  0999 V2000
    4.6754   -5.9007    0.0000 C   0  0  0  0  0  0  0  0  0  0  0  0
    5.0774   -5.1900    0.0000 C   0  0  0  0  0  0  0  0  0  0  0  0
    5.0774   -6.6064    0.0000 C   0  0  0  0  0  0  0  0  0  0  0  0
    5.9007   -6.6162    0.0000 C   0  0  0  0  0  0  0  0  0  0  0  0
    3.8423   -5.9007    0.0000 C   0  0  0  0  0  0  0  0  0  0  0  0
    6.3124   -5.9007    0.0000 C   0  0  0  0  0  0  0  0  0  0  0  0
    3.4404   -6.6162    0.0000 C   0  0  0  0  0  0  0  0  0  0  0  0
    4.2246   -7.0279    0.0000 O   0  0  0  0  0  0  0  0  0  0  0  0
    4.6754   -4.4745    0.0000 C   0  0  0  0  0  0  0  0  0  0  0  0
    5.0871   -3.7541    0.0000 N   0  0  0  0  0  0  0  0  0  0  0  0
    3.4257   -5.1900    0.0000 C   0  0  0  0  0  0  0  0  0  0  0  0
    5.9007   -5.1803    0.0000 C   0  0  0  0  0  0  0  0  0  0  0  0
    7.0328   -5.4743    0.0000 C   0  0  0  0  0  0  0  0  0  0  0  0
    3.8423   -4.4745    0.0000 C   0  0  0  0  0  0  0  0  0  0  0  0
    5.1753   -5.8075    0.0000 C   0  0  0  0  0  0  0  0  0  0  0  0
    5.7831   -6.0183    0.0000 C   0  0  0  0  0  0  0  0  0  0  0  0
    4.2540   -5.1803    0.0000 C   0  0  0  0  0  0  0  0  0  0  0  0
    5.7978   -3.3424    0.0000 C   0  0  0  0  0  0  0  0  0  0  0  0
    7.7532   -5.8860    0.0000 C   0  0  0  0  0  0  0  0  0  0  0  0
    2.6171   -6.6211    0.0000 C   0  0  0  0  0  0  0  0  0  0  0  0
    6.5182   -3.7541    0.0000 C   0  0  0  0  0  0  0  0  0  0  0  0
    4.2540   -3.7541    0.0000 C   0  0  0  0  0  0  0  0  0  0  0  0
    6.9299   -4.4745    0.0000 C   0  0  0  0  0  0  0  0  0  0  0  0
    7.3416   -3.7541    0.0000 C   0  0  0  0  0  0  0  0  0  0  0  0
    2.6024   -5.1950    0.0000 C   0  0  0  0  0  0  0  0  0  0  0  0
    6.3124   -7.3269    0.0000 O   0  0  0  0  0  0  0  0  0  0  0  0
    2.1956   -5.9154    0.0000 C   0  0  0  0  0  0  0  0  0  0  0  0
    7.4395   -4.7637    0.0000 O   0  0  0  0  0  0  0  0  0  0  0  0
    2.2103   -7.3416    0.0000 O   0  0  0  0  0  0  0  0  0  0  0  0
    6.6064   -4.7637    0.0000 C   0  0  0  0  0  0  0  0  0  0  0  0
    8.4590   -5.4596    0.0000 C   0  0  0  0  0  0  0  0  0  0  0  0
    7.3269   -6.6015    0.0000 C   0  0  0  0  0  0  0  0  0  0  0  0
    8.1502   -6.6015    0.0000 C   0  0  0  0  0  0  0  0  0  0  0  0
    5.9007   -8.0473    0.0000 C   0  0  0  0  0  0  0  0  0  0  0  0
    6.5681   -4.9339    0.0000 H   0  0  0  0  0  0  0  0  0  0  0  0
    4.1735   -3.6096    0.0000 H   0  0  0  0  0  0  0  0  0  0  0  0
    5.2991   -7.5815    0.0000 H   0  0  0  0  0  0  0  0  0  0  0  0
  2  1  1  0
  3  1  1  0
  4  3  1  0
  5  1  1  0
  6  4  1  0
  7  5  1  0
  3  8  1  0
  9  2  1  0
 10 22  1  0
 11  5  2  0
  2 12  1  1
  6 13  1  0
 14 11  1  0
  2 15  1  0
  4 16  1  0
  1 17  1  1
 18 10  1  0
 19 13  1  0
 20  7  2  0
 21 18  1  0
 22 17  1  0
 23 21  1  0
 24 21  1  0
 25 11  1  0
  4 26  1  1
 27 25  2  0
 13 28  1  6
 29 20  1  0
 30 13  1  0
 31 19  1  0
 32 19  1  0
 33 19  1  0
 34 26  1  0
  6 35  1  1
  7  8  1  0
  6 12  1  0
  9 10  1  0
  9 14  1  0
 15 16  1  0
 27 20  1  0
 24 23  1  0
  9 36  1  6
  3 37  1  1
M  END
> <chembl_id>
CHEMBL511142

> <chembl_pref_name>
BUPRENORPHINE

$$$$

     RDKit          2D

 22 25  0  0  0  0  0  0  0  0999 V2000
    5.4625   -5.4542    0.0000 C   0  0  0  0  0  0  0  0  0  0  0  0
    5.2625   -6.1667    0.0000 C   0  0  0  0  0  0  0  0  0  0  0  0
    5.0542   -4.8792    0.0000 C   0  0  0  0  0  0  0  0  0  0  0  0
    4.2875   -4.8792    0.0000 N   0  0  0  0  0  0  0  0  0  0  0  0
    4.6625   -6.4625    0.0000 N   0  0  0  0  0  0  0  0  0  0  0  0
    5.8792   -6.5417    0.0000 S   0  0  0  0  0  0  0  0  0  0  0  0
    5.6542   -4.4667    0.0000 N   0  0  0  0  0  0  0  0  0  0  0  0
    6.1667   -5.4542    0.0000 C   0  0  0  0  0  0  0  0  0  0  0  0
    6.4042   -6.0917    0.0000 C   0  0  0  0  0  0  0  0  0  0  0  0
    3.8667   -5.4792    0.0000 C   0  0  0  0  0  0  0  0  0  0  0  0
    4.0542   -6.1667    0.0000 C   0  0  0  0  0  0  0  0  0  0  0  0
    6.8667   -3.7542    0.0000 N   0  0  0  0  0  0  0  0  0  0  0  0
    6.2875   -4.8292    0.0000 C   0  0  0  0  0  0  0  0  0  0  0  0
    5.6542   -3.7875    0.0000 C   0  0  0  0  0  0  0  0  0  0  0  0
    6.8667   -4.4792    0.0000 C   0  0  0  0  0  0  0  0  0  0  0  0
    6.2625   -3.4167    0.0000 C   0  0  0  0  0  0  0  0  0  0  0  0
    7.4667   -3.3917    0.0000 C   0  0  0  0  0  0  0  0  0  0  0  0
    7.0917   -6.2542    0.0000 C   0  0  0  0  0  0  0  0  0  0  0  0
    3.1792   -5.2917    0.0000 C   0  0  0  0  0  0  0  0  0  0  0  0
    3.5417   -6.6750    0.0000 C   0  0  0  0  0  0  0  0  0  0  0  0
    2.6750   -5.7917    0.0000 C   0  0  0  0  0  0  0  0  0  0  0  0
    2.8542   -6.4917    0.0000 C   0  0  0  0  0  0  0  0  0  0  0  0
  2  1  2  0
  3  1  1  0
  4  3  2  0
  5  2  1  0
  6  2  1  0
  7  3  1  0
  8  1  1  0
  9  8  2  0
 10  4  1  0
 11  5  1  0
 12 16  1  0
 13  7  1  0
 14  7  1  0
 15 13  1  0
 16 14  1  0
 17 12  1  0
 18  9  1  0
 19 10  1  0
 20 11  1  0
 21 19  2  0
 22 20  2  0
  9  6  1  0
 11 10  2  0
 12 15  1  0
 22 21  1  0
M  END
> <chembl_id>
CHEMBL715

> <chembl_pref_name>
OLANZAPINE

$$$$

     RDKit          2D

  7  6  0  0  0  0  0  0  0  0999 V2000
   -0.8649   -1.9745    0.0000 N   0  0  0  0  0  0  0  0  0  0  0  0
   -0.4524   -1.2601    0.0000 C   0  0  0  0  0  0  0  0  0  0  0  0
    0.3726   -1.2601    0.0000 C   0  0  0  0  0  0  0  0  0  0  0  0
    0.7851   -1.9745    0.0000 O   0  0  0  0  0  0  0  0  0  0  0  0
    0.7851   -0.5456    0.0000 O   0  0  0  0  0  0  0  0  0  0  0  0
   -0.8649   -0.5456    0.0000 C   0  0  0  0  0  0  0  0  0  0  0  0
   -1.6899   -0.5456    0.0000 O   0  0  0  0  0  0  0  0  0  0  0  0
  2  1  1  6
  3  2  1  0
  2  6  1  0
  3  4  2  0
  3  5  1  0
  6  7  1  0
M  END
> <chembl_id>
CHEMBL285123

> <chembl_pref_name>
(D)-SERINE

$$$$

     RDKit          2D

 19 21  0  0  0  0  0  0  0  0999 V2000
    4.7542   -7.2417    0.0000 C   0  0  0  0  0  0  0  0  0  0  0  0
    4.0375   -7.2417    0.0000 N   0  0  0  0  0  0  0  0  0  0  0  0
    4.9792   -6.5667    0.0000 C   0  0  0  0  0  0  0  0  0  0  0  0
    3.8167   -6.5625    0.0000 C   0  0  0  0  0  0  0  0  0  0  0  0
    4.4042   -6.1542    0.0000 N   0  0  0  0  0  0  0  0  0  0  0  0
    5.1542   -7.8250    0.0000 O   0  0  0  0  0  0  0  0  0  0  0  0
    3.1417   -6.3417    0.0000 O   0  0  0  0  0  0  0  0  0  0  0  0
    5.5792   -6.9292    0.0000 C   0  0  0  0  0  0  0  0  0  0  0  0
    5.3250   -5.9625    0.0000 C   0  0  0  0  0  0  0  0  0  0  0  0
    5.5667   -7.6417    0.0000 C   0  0  0  0  0  0  0  0  0  0  0  0
    6.2000   -6.5875    0.0000 C   0  0  0  0  0  0  0  0  0  0  0  0
    6.0375   -5.9667    0.0000 C   0  0  0  0  0  0  0  0  0  0  0  0
    4.9792   -5.3417    0.0000 C   0  0  0  0  0  0  0  0  0  0  0  0
    6.8125   -6.9500    0.0000 C   0  0  0  0  0  0  0  0  0  0  0  0
    6.4000   -5.3500    0.0000 C   0  0  0  0  0  0  0  0  0  0  0  0
    5.3375   -4.7292    0.0000 C   0  0  0  0  0  0  0  0  0  0  0  0
    6.1792   -8.0125    0.0000 C   0  0  0  0  0  0  0  0  0  0  0  0
    6.8000   -7.6625    0.0000 C   0  0  0  0  0  0  0  0  0  0  0  0
    6.0417   -4.7292    0.0000 C   0  0  0  0  0  0  0  0  0  0  0  0
  2  1  1  0
  3  1  1  0
  4  2  1  0
  5  3  1  0
  6  1  2  0
  7  4  2  0
  8  3  1  0
  9  3  1  0
 10  8  2  0
 11  8  1  0
 12  9  2  0
 13  9  1  0
 14 11  2  0
 15 12  1  0
 16 13  2  0
 17 10  1  0
 18 14  1  0
 19 16  1  0
  4  5  1  0
 19 15  2  0
 18 17  2  0
M  END
> <chembl_id>
CHEMBL16

> <chembl_pref_name>
PHENYTOIN

$$$$

     RDKit          2D

 14 14  0  0  0  0  0  0  0  0999 V2000
    7.5065   17.2477    0.0000 N   0  0  0  0  0  0  0  0  0  0  0  0
    7.5065   16.4227    0.0000 C   0  0  0  0  0  0  0  0  0  0  0  0
    8.2210   16.0102    0.0000 C   0  0  0  0  0  0  0  0  0  0  0  0
    8.9354   16.4227    0.0000 O   0  0  0  0  0  0  0  0  0  0  0  0
    6.7920   16.0102    0.0000 C   0  0  0  0  0  0  0  0  0  0  0  0
    6.0775   16.4227    0.0000 C   0  0  0  0  0  0  0  0  0  0  0  0
    5.3631   16.0102    0.0000 C   0  0  0  0  0  0  0  0  0  0  0  0
    6.0775   17.2477    0.0000 C   0  0  0  0  0  0  0  0  0  0  0  0
    4.6486   16.4227    0.0000 C   0  0  0  0  0  0  0  0  0  0  0  0
    5.3631   17.6602    0.0000 C   0  0  0  0  0  0  0  0  0  0  0  0
    4.6486   17.2477    0.0000 C   0  0  0  0  0  0  0  0  0  0  0  0
    3.9341   17.6602    0.0000 O   0  0  0  0  0  0  0  0  0  0  0  0
    5.3631   18.4852    0.0000 O   0  0  0  0  0  0  0  0  0  0  0  0
    8.2210   15.1852    0.0000 O   0  0  0  0  0  0  0  0  0  0  0  0
  2  1  1  6
  3  2  1  0
  2  5  1  0
  3  4  2  0
  3 14  1  0
  5  6  1  0
  7  6  1  0
  8  6  2  0
  7  9  2  0
  8 10  1  0
  9 11  1  0
 10 11  2  0
 10 13  1  0
 11 12  1  0
M  END
> <chembl_id>
CHEMBL1009

> <chembl_pref_name>
LEVODOPA

$$$$

     RDKit          2D

 28 29  0  0  0  0  0  0  0  0999 V2000
    0.8500   -6.6417    0.0000 C   0  0  0  0  0  0  0  0  0  0  0  0
   -0.3708   -6.6417    0.0000 C   0  0  0  0  0  0  0  0  0  0  0  0
    0.2375   -7.0000    0.0000 C   0  0  0  0  0  0  0  0  0  0  0  0
   -0.3708   -5.9375    0.0000 C   0  0  0  0  0  0  0  0  0  0  0  0
    0.8500   -5.9375    0.0000 C   0  0  0  0  0  0  0  0  0  0  0  0
    0.2375   -5.5792    0.0000 N   0  0  0  0  0  0  0  0  0  0  0  0
    2.0750   -7.9958    0.0000 N   0  0  0  0  0  0  0  0  0  0  0  0
    0.2375   -8.3625    0.0000 C   0  0  0  0  0  0  0  0  0  0  0  0
    0.8500   -8.7125    0.0000 C   0  0  0  0  0  0  0  0  0  0  0  0
    1.4667   -6.9958    0.0000 C   0  0  0  0  0  0  0  0  0  0  0  0
   -0.9875   -6.9958    0.0000 C   0  0  0  0  0  0  0  0  0  0  0  0
    2.6917   -8.3500    0.0000 O   0  0  0  0  0  0  0  0  0  0  0  0
    2.0708   -7.2875    0.0000 O   0  0  0  0  0  0  0  0  0  0  0  0
    2.0792   -6.6417    0.0000 O   0  0  0  0  0  0  0  0  0  0  0  0
    1.4667   -7.7042    0.0000 O   0  0  0  0  0  0  0  0  0  0  0  0
   -0.9875   -7.7042    0.0000 O   0  0  0  0  0  0  0  0  0  0  0  0
   -1.6000   -6.6417    0.0000 O   0  0  0  0  0  0  0  0  0  0  0  0
   -0.9875   -5.5833    0.0000 C   0  0  0  0  0  0  0  0  0  0  0  0
    1.4667   -5.5833    0.0000 C   0  0  0  0  0  0  0  0  0  0  0  0
    2.6917   -6.9958    0.0000 C   0  0  0  0  0  0  0  0  0  0  0  0
   -0.3750   -8.7125    0.0000 C   0  0  0  0  0  0  0  0  0  0  0  0
    0.8542   -9.4167    0.0000 C   0  0  0  0  0  0  0  0  0  0  0  0
    3.3042   -6.6417    0.0000 C   0  0  0  0  0  0  0  0  0  0  0  0
   -2.2125   -6.9958    0.0000 C   0  0  0  0  0  0  0  0  0  0  0  0
   -0.3750   -9.4208    0.0000 C   0  0  0  0  0  0  0  0  0  0  0  0
    3.9167   -6.9958    0.0000 C   0  0  0  0  0  0  0  0  0  0  0  0
    3.3042   -5.9333    0.0000 C   0  0  0  0  0  0  0  0  0  0  0  0
    0.2375   -9.7750    0.0000 C   0  0  0  0  0  0  0  0  0  0  0  0
  2  3  1  0
  3  1  1  0
  4  6  1  0
  5  1  2  0
  6  5  1  0
  7  9  1  0
  8  3  1  0
  9  8  1  0
 10  1  1  0
 11  2  1  0
 12  7  1  0
 13  7  2  0
 14 10  1  0
 15 10  2  0
 16 11  2  0
 17 11  1  0
 18  4  1  0
 19  5  1  0
 20 14  1  0
 21  8  2  0
 22  9  2  0
 23 20  1  0
 24 17  1  0
 25 21  1  0
 26 23  1  0
 27 23  1  0
 28 22  1  0
  2  4  2  0
 28 25  2  0
M  CHG  2   7   1  12  -1
M  END
> <chembl_id>
CHEMBL1726

> <chembl_pref_name>
NISOLDIPINE

$$$$

     RDKit          2D

208216  0  0  1  0  0  0  0  0999 V2000
    7.1466   -8.2921    0.0000 N   0  0  0  0  0  0  0  0  0  0  0  0
   16.4239   -2.5503    0.0000 N   0  0  0  0  0  0  0  0  0  0  0  0
   -3.7429   -8.5419    0.0000 N   0  0  0  0  0  0  0  0  0  0  0  0
   -3.0217   -8.1648    0.0000 C   0  0  0  0  0  0  0  0  0  0  0  0
    7.8772   -8.6409    0.0000 C   0  0  0  0  0  0  0  0  0  0  0  0
   16.3956   -1.7395    0.0000 C   0  0  0  0  0  0  0  0  0  0  0  0
    5.6003   -8.2921    0.0000 C   0  0  0  0  0  0  0  0  0  0  0  0
   17.1310   -3.7666    0.0000 C   0  0  0  0  0  0  0  0  0  0  0  0
   -0.8627   -8.5891    0.0000 C   0  0  0  0  0  0  0  0  0  0  0  0
    3.4413   -8.6409    0.0000 C   0  0  0  0  0  0  0  0  0  0  0  0
    4.8697   -8.6409    0.0000 N   0  0  0  0  0  0  0  0  0  0  0  0
   12.9024    1.1597    0.0000 C   0  0  0  0  0  0  0  0  0  0  0  0
   17.8239   -4.2191    0.0000 N   0  0  0  0  0  0  0  0  0  0  0  0
    0.5657   -8.6174    0.0000 N   0  0  0  0  0  0  0  0  0  0  0  0
   -0.0141   -0.4950    0.0000 C   0  0  0  0  0  0  0  0  0  0  0  0
   -2.2910   -8.5608    0.0000 C   0  0  0  0  0  0  0  0  0  0  0  0
    6.3499   -8.6881    0.0000 C   0  0  0  0  0  0  0  0  0  0  0  0
   17.0979   -2.9888    0.0000 C   0  0  0  0  0  0  0  0  0  0  0  0
    1.3152   -8.2355    0.0000 C   0  0  0  0  0  0  0  0  0  0  0  0
   -4.3228   -0.4950    0.0000 C   0  0  0  0  0  0  0  0  0  0  0  0
   -2.1920   -0.1179    0.0000 C   0  0  0  0  0  0  0  0  0  0  0  0
    6.4206   -0.0707    0.0000 C   0  0  0  0  0  0  0  0  0  0  0  0
    8.6032   -0.4149    0.0000 C   0  0  0  0  0  0  0  0  0  0  0  0
   -1.5933   -8.1931    0.0000 N   0  0  0  0  0  0  0  0  0  0  0  0
    4.2898   -0.4432    0.0000 C   0  0  0  0  0  0  0  0  0  0  0  0
    2.1402   -0.0896    0.0000 C   0  0  0  0  0  0  0  0  0  0  0  0
   10.0033   -8.2921    0.0000 C   0  0  0  0  0  0  0  0  0  0  0  0
   10.7528   -0.0330    0.0000 C   0  0  0  0  0  0  0  0  0  0  0  0
   12.1812   -8.6692    0.0000 C   0  0  0  0  0  0  0  0  0  0  0  0
   14.2884   -8.2921    0.0000 C   0  0  0  0  0  0  0  0  0  0  0  0
   -1.4425   -0.4950    0.0000 N   0  0  0  0  0  0  0  0  0  0  0  0
   -4.4218   -8.1648    0.0000 C   0  0  0  0  0  0  0  0  0  0  0  0
   -0.7165   -0.1179    0.0000 C   0  0  0  0  0  0  0  0  0  0  0  0
   14.2318    1.2398    0.0000 N   0  0  0  0  0  0  0  0  0  0  0  0
   -3.6015   -0.1179    0.0000 N   0  0  0  0  0  0  0  0  0  0  0  0
    4.9970   -0.0707    0.0000 N   0  0  0  0  0  0  0  0  0  0  0  0
    4.1437   -8.2638    0.0000 C   0  0  0  0  0  0  0  0  0  0  0  0
    7.1466   -0.4432    0.0000 N   0  0  0  0  0  0  0  0  0  0  0  0
   -0.1367   -8.2166    0.0000 C   0  0  0  0  0  0  0  0  0  0  0  0
   11.4741   -0.4149    0.0000 N   0  0  0  0  0  0  0  0  0  0  0  0
    9.2773   -8.6692    0.0000 N   0  0  0  0  0  0  0  0  0  0  0  0
    2.7436   -8.2638    0.0000 N   0  0  0  0  0  0  0  0  0  0  0  0
   13.5813    0.7071    0.0000 C   0  0  0  0  0  0  0  0  0  0  0  0
    0.7119   -0.0896    0.0000 N   0  0  0  0  0  0  0  0  0  0  0  0
    2.8615   -0.4714    0.0000 N   0  0  0  0  0  0  0  0  0  0  0  0
    9.2962   -0.0330    0.0000 N   0  0  0  0  0  0  0  0  0  0  0  0
   13.5813   -8.6692    0.0000 N   0  0  0  0  0  0  0  0  0  0  0  0
   11.4599   -8.2921    0.0000 N   0  0  0  0  0  0  0  0  0  0  0  0
    5.7182   -0.4432    0.0000 C   0  0  0  0  0  0  0  0  0  0  0  0
   17.8192   -4.9828    0.0000 C   0  0  0  0  0  0  0  0  0  0  0  0
   17.1451   -5.4165    0.0000 C   0  0  0  0  0  0  0  0  0  0  0  0
   12.9024   -0.4432    0.0000 C   0  0  0  0  0  0  0  0  0  0  0  0
   12.1812   -0.0707    0.0000 C   0  0  0  0  0  0  0  0  0  0  0  0
    6.5243   -2.4938    0.0000 N   0  0  0  0  0  0  0  0  0  0  0  0
   -2.8944   -0.4950    0.0000 C   0  0  0  0  0  0  0  0  0  0  0  0
    7.8678   -0.0330    0.0000 C   0  0  0  0  0  0  0  0  0  0  0  0
    8.5749   -8.2921    0.0000 C   0  0  0  0  0  0  0  0  0  0  0  0
    7.1466   -5.0111    0.0000 C   0  0  0  0  0  0  0  0  0  0  0  0
    9.2773  -11.9973    0.0000 C   0  0  0  0  0  0  0  0  0  0  0  0
   11.4741   -3.7524    0.0000 C   0  0  0  0  0  0  0  0  0  0  0  0
   -5.1478   -8.5184    0.0000 C   0  0  0  0  0  0  0  0  0  0  0  0
   15.7309   -1.3152    0.0000 C   0  0  0  0  0  0  0  0  0  0  0  0
   13.0815    1.9893    0.0000 C   0  0  0  0  0  0  0  0  0  0  0  0
   12.1812    0.7306    0.0000 C   0  0  0  0  0  0  0  0  0  0  0  0
    6.4488   -1.6735    0.0000 C   0  0  0  0  0  0  0  0  0  0  0  0
   15.7026   -0.4997    0.0000 N   0  0  0  0  0  0  0  0  0  0  0  0
   -5.0205   -0.1179    0.0000 C   0  0  0  0  0  0  0  0  0  0  0  0
   15.7403   -8.3156    0.0000 N   0  0  0  0  0  0  0  0  0  0  0  0
    3.5921   -0.0896    0.0000 C   0  0  0  0  0  0  0  0  0  0  0  0
    5.7465   -1.2728    0.0000 C   0  0  0  0  0  0  0  0  0  0  0  0
    1.4331   -0.4714    0.0000 C   0  0  0  0  0  0  0  0  0  0  0  0
   15.0379   -0.0707    0.0000 C   0  0  0  0  0  0  0  0  0  0  0  0
   16.4380   -8.6881    0.0000 C   0  0  0  0  0  0  0  0  0  0  0  0
   17.1310   -6.2132    0.0000 N   0  0  0  0  0  0  0  0  0  0  0  0
    2.0129   -8.6409    0.0000 C   0  0  0  0  0  0  0  0  0  0  0  0
   13.6096   -0.0707    0.0000 N   0  0  0  0  0  0  0  0  0  0  0  0
    7.7499   -1.9705    0.0000 N   0  0  0  0  0  0  0  0  0  0  0  0
   10.7057   -8.6692    0.0000 C   0  0  0  0  0  0  0  0  0  0  0  0
   12.8600   -8.2921    0.0000 C   0  0  0  0  0  0  0  0  0  0  0  0
   10.0268   -0.4149    0.0000 C   0  0  0  0  0  0  0  0  0  0  0  0
    7.3446   -2.6729    0.0000 C   0  0  0  0  0  0  0  0  0  0  0  0
   13.9348    2.0082    0.0000 C   0  0  0  0  0  0  0  0  0  0  0  0
   15.0096   -8.6881    0.0000 C   0  0  0  0  0  0  0  0  0  0  0  0
    8.5466  -12.3933    0.0000 N   0  0  0  0  0  0  0  0  0  0  0  0
    6.4253   -4.5868    0.0000 N   0  0  0  0  0  0  0  0  0  0  0  0
   12.2095   -4.1012    0.0000 N   0  0  0  0  0  0  0  0  0  0  0  0
    4.2616    2.0082    0.0000 C   0  0  0  0  0  0  0  0  0  0  0  0
   -3.0217   -7.3398    0.0000 O   0  0  0  0  0  0  0  0  0  0  0  0
    7.8772   -9.4942    0.0000 O   0  0  0  0  0  0  0  0  0  0  0  0
   17.1168   -1.3341    0.0000 O   0  0  0  0  0  0  0  0  0  0  0  0
    5.6003   -7.3587    0.0000 O   0  0  0  0  0  0  0  0  0  0  0  0
   16.4191   -4.1720    0.0000 O   0  0  0  0  0  0  0  0  0  0  0  0
   -2.2910   -9.3952    0.0000 C   0  0  0  0  0  0  0  0  0  0  0  0
   -0.8627   -9.4187    0.0000 O   0  0  0  0  0  0  0  0  0  0  0  0
    3.4413   -9.4376    0.0000 O   0  0  0  0  0  0  0  0  0  0  0  0
    7.1984   -1.3483    0.0000 C   0  0  0  0  0  0  0  0  0  0  0  0
   -0.0141   -1.2917    0.0000 O   0  0  0  0  0  0  0  0  0  0  0  0
   -4.3228   -1.3200    0.0000 O   0  0  0  0  0  0  0  0  0  0  0  0
    1.3152   -7.4153    0.0000 O   0  0  0  0  0  0  0  0  0  0  0  0
   -2.1920    0.7071    0.0000 O   0  0  0  0  0  0  0  0  0  0  0  0
    6.4206    0.7306    0.0000 O   0  0  0  0  0  0  0  0  0  0  0  0
    8.6032   -1.2728    0.0000 O   0  0  0  0  0  0  0  0  0  0  0  0
   12.1340   -9.4942    0.0000 O   0  0  0  0  0  0  0  0  0  0  0  0
   10.0033   -7.4671    0.0000 O   0  0  0  0  0  0  0  0  0  0  0  0
   14.2884   -7.4860    0.0000 O   0  0  0  0  0  0  0  0  0  0  0  0
   10.7528    0.7589    0.0000 O   0  0  0  0  0  0  0  0  0  0  0  0
    4.2898   -1.2917    0.0000 O   0  0  0  0  0  0  0  0  0  0  0  0
    2.1402    0.7071    0.0000 O   0  0  0  0  0  0  0  0  0  0  0  0
   -2.8709   -1.2917    0.0000 C   0  0  0  0  0  0  0  0  0  0  0  0
    7.8678    0.7589    0.0000 C   0  0  0  0  0  0  0  0  0  0  0  0
   16.4239   -5.0111    0.0000 O   0  0  0  0  0  0  0  0  0  0  0  0
   12.9024   -1.2728    0.0000 O   0  0  0  0  0  0  0  0  0  0  0  0
   -5.1478   -9.3669    0.0000 O   0  0  0  0  0  0  0  0  0  0  0  0
   16.4380   -9.4942    0.0000 O   0  0  0  0  0  0  0  0  0  0  0  0
   15.0379    0.7306    0.0000 O   0  0  0  0  0  0  0  0  0  0  0  0
    3.5686    2.4136    0.0000 O   0  0  0  0  0  0  0  0  0  0  0  0
    3.5921    0.7306    0.0000 C   0  0  0  0  0  0  0  0  0  0  0  0
    9.2773  -11.1723    0.0000 N   0  0  0  0  0  0  0  0  0  0  0  0
    7.1466   -5.8124    0.0000 N   0  0  0  0  0  0  0  0  0  0  0  0
   11.4741   -2.8992    0.0000 N   0  0  0  0  0  0  0  0  0  0  0  0
   17.1686   -8.3156    0.0000 C   0  0  0  0  0  0  0  0  0  0  0  0
   14.3119   -0.4432    0.0000 C   0  0  0  0  0  0  0  0  0  0  0  0
    7.8961   -4.5868    0.0000 N   0  0  0  0  0  0  0  0  0  0  0  0
   10.0033  -12.3933    0.0000 N   0  0  0  0  0  0  0  0  0  0  0  0
   10.7528   -4.1012    0.0000 N   0  0  0  0  0  0  0  0  0  0  0  0
    7.1749   -7.5143    0.0000 C   0  0  0  0  0  0  0  0  0  0  0  0
   -3.7429   -9.3669    0.0000 C   0  0  0  0  0  0  0  0  0  0  0  0
   15.7450   -2.9322    0.0000 C   0  0  0  0  0  0  0  0  0  0  0  0
   -5.7511   -0.4950    0.0000 N   0  0  0  0  0  0  0  0  0  0  0  0
    4.1720   -7.4388    0.0000 C   0  0  0  0  0  0  0  0  0  0  0  0
   -0.1367   -7.3870    0.0000 C   0  0  0  0  0  0  0  0  0  0  0  0
   18.5169   -5.3788    0.0000 C   0  0  0  0  0  0  0  0  0  0  0  0
    4.2616    1.1597    0.0000 C   0  0  0  0  0  0  0  0  0  0  0  0
   -2.8426  -10.0174    0.0000 C   0  0  0  0  0  0  0  0  0  0  0  0
   -2.1449   -1.7160    0.0000 C   0  0  0  0  0  0  0  0  0  0  0  0
   -5.8218   -8.1648    0.0000 O   0  0  0  0  0  0  0  0  0  0  0  0
    1.4331   -1.2917    0.0000 C   0  0  0  0  0  0  0  0  0  0  0  0
   -3.8702  -11.3185    0.0000 C   0  0  0  0  0  0  0  0  0  0  0  0
   -0.7165   -2.5503    0.0000 C   0  0  0  0  0  0  0  0  0  0  0  0
    4.9970    2.4419    0.0000 O   0  0  0  0  0  0  0  0  0  0  0  0
    8.5749    1.1832    0.0000 C   0  0  0  0  0  0  0  0  0  0  0  0
    2.1402   -2.5503    0.0000 S   0  0  0  0  0  0  0  0  0  0  0  0
   -0.7165    0.7071    0.0000 C   0  0  0  0  0  0  0  0  0  0  0  0
   -2.5408  -10.8235    0.0000 C   0  0  0  0  0  0  0  0  0  0  0  0
   -3.6439   -9.8902    0.0000 C   0  0  0  0  0  0  0  0  0  0  0  0
   -1.4425   -1.2917    0.0000 C   0  0  0  0  0  0  0  0  0  0  0  0
   -2.1449   -2.5503    0.0000 C   0  0  0  0  0  0  0  0  0  0  0  0
   11.4741   -4.9828    0.0000 N   0  0  0  0  0  0  0  0  0  0  0  0
    0.5374  -11.9219    0.0000 N   0  0  0  0  0  0  0  0  0  0  0  0
   13.5624  -11.9973    0.0000 N   0  0  0  0  0  0  0  0  0  0  0  0
   13.5388   -4.1767    0.0000 N   0  0  0  0  0  0  0  0  0  0  0  0
   -3.0406  -11.4458    0.0000 C   0  0  0  0  0  0  0  0  0  0  0  0
   -4.1672  -10.5218    0.0000 C   0  0  0  0  0  0  0  0  0  0  0  0
   -0.7165   -1.7160    0.0000 C   0  0  0  0  0  0  0  0  0  0  0  0
   -1.4425   -2.9746    0.0000 C   0  0  0  0  0  0  0  0  0  0  0  0
    5.9728   -8.0893    0.0000 C   0  0  0  0  0  0  0  0  0  0  0  0
   16.8764   -3.7100    0.0000 C   0  0  0  0  0  0  0  0  0  0  0  0
   -4.9450   -8.7446    0.0000 C   0  0  0  0  0  0  0  0  0  0  0  0
   -5.0205    0.7071    0.0000 C   0  0  0  0  0  0  0  0  0  0  0  0
   -4.3935  -11.9502    0.0000 O   0  0  0  0  0  0  0  0  0  0  0  0
   -0.0141   -2.9463    0.0000 O   0  0  0  0  0  0  0  0  0  0  0  0
   -0.0141    1.1314    0.0000 O   0  0  0  0  0  0  0  0  0  0  0  0
   -4.3228    1.1125    0.0000 O   0  0  0  0  0  0  0  0  0  0  0  0
    6.2980   -7.3398    0.0000 C   0  0  0  0  0  0  0  0  0  0  0  0
   -4.5679   -9.4942    0.0000 C   0  0  0  0  0  0  0  0  0  0  0  0
   15.9996   -3.7477    0.0000 C   0  0  0  0  0  0  0  0  0  0  0  0
    8.5749   -7.4671    0.0000 C   0  0  0  0  0  0  0  0  0  0  0  0
   12.6573    2.6587    0.0000 C   0  0  0  0  0  0  0  0  0  0  0  0
   15.0096   -1.7160    0.0000 C   0  0  0  0  0  0  0  0  0  0  0  0
    2.1402   -1.6971    0.0000 C   0  0  0  0  0  0  0  0  0  0  0  0
   10.7057   -9.4942    0.0000 C   0  0  0  0  0  0  0  0  0  0  0  0
    1.9941   -9.4376    0.0000 C   0  0  0  0  0  0  0  0  0  0  0  0
   12.8836   -7.4671    0.0000 C   0  0  0  0  0  0  0  0  0  0  0  0
   10.0268   -1.2445    0.0000 C   0  0  0  0  0  0  0  0  0  0  0  0
   15.0096   -9.4942    0.0000 C   0  0  0  0  0  0  0  0  0  0  0  0
   14.3119    2.7671    0.0000 C   0  0  0  0  0  0  0  0  0  0  0  0
   10.0033  -10.7481    0.0000 C   0  0  0  0  0  0  0  0  0  0  0  0
    7.8772   -6.2367    0.0000 C   0  0  0  0  0  0  0  0  0  0  0  0
   10.7528   -2.4938    0.0000 C   0  0  0  0  0  0  0  0  0  0  0  0
   11.4599   -5.7889    0.0000 C   0  0  0  0  0  0  0  0  0  0  0  0
   13.5624  -11.1723    0.0000 C   0  0  0  0  0  0  0  0  0  0  0  0
    0.5374  -11.1205    0.0000 C   0  0  0  0  0  0  0  0  0  0  0  0
   14.2412   -3.7807    0.0000 C   0  0  0  0  0  0  0  0  0  0  0  0
    1.4331   -2.9463    0.0000 C   0  0  0  0  0  0  0  0  0  0  0  0
    4.8980   -7.0145    0.0000 C   0  0  0  0  0  0  0  0  0  0  0  0
    3.4696   -7.0145    0.0000 C   0  0  0  0  0  0  0  0  0  0  0  0
   -0.8627   -6.9627    0.0000 C   0  0  0  0  0  0  0  0  0  0  0  0
    0.6129   -6.9910    0.0000 C   0  0  0  0  0  0  0  0  0  0  0  0
   19.2193   -4.9970    0.0000 C   0  0  0  0  0  0  0  0  0  0  0  0
   18.5310   -6.2226    0.0000 C   0  0  0  0  0  0  0  0  0  0  0  0
    9.2962    0.7589    0.0000 C   0  0  0  0  0  0  0  0  0  0  0  0
    8.5749    2.0082    0.0000 C   0  0  0  0  0  0  0  0  0  0  0  0
    7.8772   -7.0617    0.0000 C   0  0  0  0  0  0  0  0  0  0  0  0
   10.0033   -9.8902    0.0000 C   0  0  0  0  0  0  0  0  0  0  0  0
   10.7528   -1.6452    0.0000 C   0  0  0  0  0  0  0  0  0  0  0  0
   14.9814   -2.5362    0.0000 C   0  0  0  0  0  0  0  0  0  0  0  0
    1.3152   -9.8430    0.0000 C   0  0  0  0  0  0  0  0  0  0  0  0
   12.1812   -7.0334    0.0000 C   0  0  0  0  0  0  0  0  0  0  0  0
   14.2884   -9.9184    0.0000 C   0  0  0  0  0  0  0  0  0  0  0  0
   14.2884  -10.7670    0.0000 C   0  0  0  0  0  0  0  0  0  0  0  0
   12.1812   -6.2367    0.0000 C   0  0  0  0  0  0  0  0  0  0  0  0
    1.2917  -10.6963    0.0000 C   0  0  0  0  0  0  0  0  0  0  0  0
   14.2601   -2.9416    0.0000 C   0  0  0  0  0  0  0  0  0  0  0  0
   13.0108    3.4177    0.0000 C   0  0  0  0  0  0  0  0  0  0  0  0
   13.8594    3.4601    0.0000 C   0  0  0  0  0  0  0  0  0  0  0  0
   10.0268    1.1832    0.0000 C   0  0  0  0  0  0  0  0  0  0  0  0
    9.2962    2.4419    0.0000 C   0  0  0  0  0  0  0  0  0  0  0  0
   10.0268    2.0082    0.0000 C   0  0  0  0  0  0  0  0  0  0  0  0
 18  2  1  6
  3  4  1  0
  4 16  1  0
  5  1  1  0
  6  2  1  0
  7 17  1  0
  8 13  1  0
  9 39  1  0
 10 37  1  0
 11  7  1  0
 12 64  1  0
 50 13  1  1
 14 19  1  0
 15 44  1  0
 16 24  1  1
 17  1  1  6
 18  8  1  0
 19 75  1  0
 20 35  1  0
 21 31  1  0
 22 38  1  0
 23 46  1  0
 24  9  1  0
 25 36  1  0
 26 45  1  0
 27 41  1  0
 28 40  1  0
 29 48  1  0
 30 47  1  0
 33 31  1  1
 32  3  1  1
 33 15  1  0
 34 43  1  0
 55 35  1  6
 49 36  1  6
 37 11  1  6
 56 38  1  1
 39 14  1  6
 53 40  1  1
 57 41  1  6
 42 10  1  0
 43 12  2  0
 71 44  1  6
 69 45  1  1
 80 46  1  6
 79 47  1  6
 78 48  1  1
 49 22  1  0
 50 51  1  0
 51 74  1  0
 52 76  1  0
 53 52  1  0
 54 65  1  0
 55 21  1  0
 56 23  1  0
 57  5  1  0
 58119  1  0
 59118  1  0
 60120  1  0
 61 32  1  0
 62  6  1  0
 63 12  1  0
 64 53  1  0
 65 70  1  0
 62 66  1  6
 67 20  1  0
 83 68  1  1
 69 25  1  0
 70 49  1  0
 71 26  1  0
 72 66  1  0
 73 68  1  0
 74121  1  0
 75 42  1  1
 76122  1  0
 77 96  1  0
 78 27  1  0
 79 29  1  0
 80 28  1  0
 81 54  2  0
 82 63  2  0
 83 30  1  0
 84 59  2  0
 85 58  2  0
 86 60  2  0
 87133  1  0
 88  4  2  0
 89  5  2  0
 90  6  2  0
 91  7  2  0
 92  8  2  0
 93 16  1  0
 94  9  2  0
 95 10  2  0
 96 65  2  0
 97 15  2  0
 98 20  2  0
 99 19  2  0
100 21  2  0
101 22  2  0
102 23  2  0
103 29  2  0
104 27  2  0
105 30  2  0
106 28  2  0
107 25  2  0
108 26  2  0
109 55  1  0
110 56  1  0
111 51  2  0
112 52  2  0
113 61  2  0
114 73  2  0
115 72  2  0
116 87  2  0
117 69  1  0
118177  1  0
119178  1  0
120179  1  0
121 73  1  0
122 72  1  0
123 58  1  0
124 59  1  0
125 60  1  0
126  1  1  0
127  3  1  0
128  2  1  0
 67129  1  1
130 37  1  0
131 39  1  0
132 50  1  0
133117  1  0
134 93  1  0
135109  1  0
136 61  1  0
137 71  1  0
138153  1  0
139155  2  0
140 87  1  0
141110  1  0
142170  1  0
143 33  1  0
144134  2  0
145134  1  0
146135  1  0
147135  2  0
148180  1  0
149182  1  0
150181  1  0
151183  1  0
152144  1  0
153145  2  0
154146  2  0
155147  1  0
156 17  1  0
157 18  1  0
158 32  1  0
159 67  1  0
160138  1  0
161139  1  0
162143  1  0
163159  1  0
164126  1  0
165127  1  0
166157  1  0
167 57  1  0
168 63  1  0
169 62  1  0
170137  1  0
171 78  1  0
172 75  1  0
173 79  1  0
174 80  1  0
175 83  1  0
176 82  1  0
177194  1  0
178193  1  0
179195  1  0
180201  1  0
181200  1  0
182202  1  0
183203  1  0
184142  1  0
185130  1  0
186130  1  0
187131  1  0
188131  1  0
189132  1  0
190132  1  0
191141  1  0
192141  2  0
193167  1  0
194171  1  0
195174  1  0
196169  1  0
197172  1  0
198173  1  0
199175  1  0
200199  1  0
201198  1  0
202197  1  0
203196  1  0
204168  2  0
205204  1  0
206191  2  0
207192  1  0
208207  2  0
164156  1  0
138152  2  0
165158  1  0
128166  1  0
 34 82  1  0
205176  2  0
208206  1  0
 81 77  1  0
139154  1  0
M  END
> <chembl_id>
CHEMBL2103784

> <chembl_pref_name>
COSYNTROPIN

$$$$

     RDKit          2D

 31 33  0  0  0  0  0  0  0  0999 V2000
    7.0417   -4.5667    0.0000 C   0  0  0  0  0  0  0  0  0  0  0  0
    7.0250   -6.0000    0.0000 C   0  0  0  0  0  0  0  0  0  0  0  0
    7.0417   -3.8542    0.0000 O   0  0  0  0  0  0  0  0  0  0  0  0
    7.0167   -6.7042    0.0000 O   0  0  0  0  0  0  0  0  0  0  0  0
    6.4167   -4.9292    0.0000 C   0  0  0  0  0  0  0  0  0  0  0  0
    6.4167   -5.6417    0.0000 C   0  0  0  0  0  0  0  0  0  0  0  0
    7.6292   -5.6500    0.0000 O   0  0  0  0  0  0  0  0  0  0  0  0
    7.6417   -4.9375    0.0000 O   0  0  0  0  0  0  0  0  0  0  0  0
    3.0375   -5.3042    0.0000 C   0  0  0  0  0  0  0  0  0  0  0  0
    2.3042   -5.3042    0.0000 N   0  0  0  0  0  0  0  0  0  0  0  0
    3.4667   -5.8667    0.0000 C   0  0  0  0  0  0  0  0  0  0  0  0
    3.3750   -4.6875    0.0000 N   0  0  0  0  0  0  0  0  0  0  0  0
    3.2917   -6.5542    0.0000 C   0  0  0  0  0  0  0  0  0  0  0  0
    2.6417   -6.8542    0.0000 O   0  0  0  0  0  0  0  0  0  0  0  0
    1.8667   -5.8542    0.0000 C   0  0  0  0  0  0  0  0  0  0  0  0
    2.0167   -6.5250    0.0000 C   0  0  0  0  0  0  0  0  0  0  0  0
    4.0750   -3.4542    0.0000 N   0  0  0  0  0  0  0  0  0  0  0  0
    4.1625   -5.6792    0.0000 C   0  0  0  0  0  0  0  0  0  0  0  0
    4.0875   -4.6875    0.0000 C   0  0  0  0  0  0  0  0  0  0  0  0
    3.0292   -4.0667    0.0000 C   0  0  0  0  0  0  0  0  0  0  0  0
    3.8167   -7.0542    0.0000 C   0  0  0  0  0  0  0  0  0  0  0  0
    4.4292   -4.0708    0.0000 C   0  0  0  0  0  0  0  0  0  0  0  0
    3.3667   -3.4625    0.0000 C   0  0  0  0  0  0  0  0  0  0  0  0
    4.6667   -6.1667    0.0000 C   0  0  0  0  0  0  0  0  0  0  0  0
    4.4875   -6.8500    0.0000 C   0  0  0  0  0  0  0  0  0  0  0  0
    5.3750   -5.9917    0.0000 Cl  0  0  0  0  0  0  0  0  0  0  0  0
    4.4167   -2.8125    0.0000 C   0  0  0  0  0  0  0  0  0  0  0  0
    1.1875   -5.6417    0.0000 C   0  0  0  0  0  0  0  0  0  0  0  0
    1.4917   -7.0167    0.0000 C   0  0  0  0  0  0  0  0  0  0  0  0
    0.6750   -6.1250    0.0000 C   0  0  0  0  0  0  0  0  0  0  0  0
    0.8167   -6.8042    0.0000 C   0  0  0  0  0  0  0  0  0  0  0  0
  2  6  1  0
  3  1  2  0
  4  2  2  0
  5  1  1  0
  6  5  1  0
  7  2  1  0
  8  1  1  0
 10  9  2  0
 11  9  1  0
 12  9  1  0
 13 11  2  0
 14 13  1  0
 15 10  1  0
 16 15  2  0
 17 23  1  0
 18 11  1  0
 19 12  1  0
 20 12  1  0
 21 13  1  0
 22 19  1  0
 23 20  1  0
 24 18  2  0
 25 21  2  0
 26 24  1  0
 27 17  1  0
 28 15  1  0
 29 16  1  0
 30 28  2  0
 31 30  1  0
 17 22  1  0
 16 14  1  0
 24 25  1  0
 31 29  2  0
M  END
> <chembl_id>
CHEMBL1201155

> <chembl_pref_name>
LOXAPINE SUCCINATE

$$$$

     RDKit          2D

 34 38  0  0  0  0  0  0  0  0999 V2000
   -2.6329    2.5231    0.0000 C   0  0  0  0  0  0  0  0  0  0  0  0
   -3.4399    2.6946    0.0000 C   0  0  0  0  0  0  0  0  0  0  0  0
   -3.9920    2.0815    0.0000 C   0  0  0  0  0  0  0  0  0  0  0  0
   -3.7370    1.2969    0.0000 C   0  0  0  0  0  0  0  0  0  0  0  0
   -2.9301    1.1254    0.0000 C   0  0  0  0  0  0  0  0  0  0  0  0
   -2.3780    1.7385    0.0000 C   0  0  0  0  0  0  0  0  0  0  0  0
   -4.1495    0.5825    0.0000 N   0  0  0  0  0  0  0  0  0  0  0  0
   -3.5975   -0.0306    0.0000 C   0  0  0  0  0  0  0  0  0  0  0  0
   -2.8438    0.3049    0.0000 N   0  0  0  0  0  0  0  0  0  0  0  0
   -4.7766    2.3365    0.0000 H   0  0  0  0  0  0  0  0  0  0  0  0
   -3.7755    3.4483    0.0000 H   0  0  0  0  0  0  0  0  0  0  0  0
   -2.0809    3.1362    0.0000 H   0  0  0  0  0  0  0  0  0  0  0  0
   -1.5632    1.6094    0.0000 H   0  0  0  0  0  0  0  0  0  0  0  0
   -3.7690   -0.8376    0.0000 O   0  0  0  0  0  0  0  0  0  0  0  0
   -2.1294   -0.1076    0.0000 C   0  0  0  0  0  0  0  0  0  0  0  0
   -1.4149    0.3049    0.0000 C   0  0  0  0  0  0  0  0  0  0  0  0
   -0.7004   -0.1076    0.0000 C   0  0  0  0  0  0  0  0  0  0  0  0
    0.0140    0.3049    0.0000 N   0  0  0  0  0  0  0  0  0  0  0  0
    0.7285    1.5424    0.0000 C   0  0  0  0  0  0  0  0  0  0  0  0
    0.0140    1.1299    0.0000 C   0  0  0  0  0  0  0  0  0  0  0  0
    0.7285   -0.1076    0.0000 C   0  0  0  0  0  0  0  0  0  0  0  0
    1.4430    0.3049    0.0000 C   0  0  0  0  0  0  0  0  0  0  0  0
    1.4430    1.1299    0.0000 C   0  0  0  0  0  0  0  0  0  0  0  0
    2.1104    1.6148    0.0000 N   0  0  0  0  0  0  0  0  0  0  0  0
    4.1057    0.6230    0.0000 C   0  0  0  0  0  0  0  0  0  0  0  0
    4.5550    1.3149    0.0000 C   0  0  0  0  0  0  0  0  0  0  0  0
    4.1805    2.0500    0.0000 C   0  0  0  0  0  0  0  0  0  0  0  0
    3.3566    2.0932    0.0000 C   0  0  0  0  0  0  0  0  0  0  0  0
    2.9073    1.4013    0.0000 C   0  0  0  0  0  0  0  0  0  0  0  0
    3.2818    0.6662    0.0000 C   0  0  0  0  0  0  0  0  0  0  0  0
    2.8375    2.7343    0.0000 N   0  0  0  0  0  0  0  0  0  0  0  0
    2.0672    2.4387    0.0000 C   0  0  0  0  0  0  0  0  0  0  0  0
    5.3789    1.3581    0.0000 Cl  0  0  0  0  0  0  0  0  0  0  0  0
    1.3753    2.8880    0.0000 O   0  0  0  0  0  0  0  0  0  0  0  0
  1  2  2  0
  2  3  1  0
  3  4  2  0
  4  5  1  0
  5  6  2  0
  1  6  1  0
  7  8  1  0
  8  9  1  0
  4  7  1  0
  5  9  1  0
  3 10  1  0
  2 11  1  0
  1 12  1  0
  6 13  1  0
  8 14  2  0
  9 15  1  0
 15 16  1  0
 16 17  1  0
 17 18  1  0
 19 20  1  0
 21 22  1  0
 22 23  1  0
 19 23  1  0
 20 18  1  0
 18 21  1  0
 23 24  1  0
 25 26  2  0
 26 27  1  0
 27 28  2  0
 28 29  1  0
 29 30  2  0
 25 30  1  0
 31 32  1  0
 28 31  1  0
 26 33  1  0
 32 34  2  0
 32 24  1  0
 29 24  1  0
M  ISO  4  10   2  11   2  12   2  13   2
M  END
> <chembl_id>
CHEMBL4594380

> <chembl_pref_name>
DEUDOMPERIDONE

$$$$

     RDKit          2D

 18 20  0  0  0  0  0  0  0  0999 V2000
    5.0667   -5.0667    0.0000 N   0  0  0  0  0  0  0  0  0  0  0  0
    5.0667   -5.7750    0.0000 C   0  0  0  0  0  0  0  0  0  0  0  0
    4.4292   -4.7625    0.0000 C   0  0  0  0  0  0  0  0  0  0  0  0
    5.7042   -4.7625    0.0000 C   0  0  0  0  0  0  0  0  0  0  0  0
    5.4167   -3.5167    0.0000 C   0  0  0  0  0  0  0  0  0  0  0  0
    4.7167   -3.5167    0.0000 C   0  0  0  0  0  0  0  0  0  0  0  0
    5.8667   -4.0667    0.0000 C   0  0  0  0  0  0  0  0  0  0  0  0
    4.2792   -4.0667    0.0000 C   0  0  0  0  0  0  0  0  0  0  0  0
    5.6875   -6.1375    0.0000 O   0  0  0  0  0  0  0  0  0  0  0  0
    4.4542   -6.1375    0.0000 N   0  0  0  0  0  0  0  0  0  0  0  0
    6.2292   -5.2417    0.0000 C   0  0  0  0  0  0  0  0  0  0  0  0
    3.9125   -5.2417    0.0000 C   0  0  0  0  0  0  0  0  0  0  0  0
    3.5917   -3.8625    0.0000 C   0  0  0  0  0  0  0  0  0  0  0  0
    6.5417   -3.8625    0.0000 C   0  0  0  0  0  0  0  0  0  0  0  0
    6.9125   -5.0292    0.0000 C   0  0  0  0  0  0  0  0  0  0  0  0
    3.2292   -5.0292    0.0000 C   0  0  0  0  0  0  0  0  0  0  0  0
    7.0750   -4.3417    0.0000 C   0  0  0  0  0  0  0  0  0  0  0  0
    3.0667   -4.3417    0.0000 C   0  0  0  0  0  0  0  0  0  0  0  0
  2  1  1  0
  3  1  1  0
  4  1  1  0
  5  7  1  0
  6  8  1  0
  7  4  1  0
  8  3  2  0
  9  2  2  0
 10  2  1  0
 11  4  2  0
 12  3  1  0
 13  8  1  0
 14  7  2  0
 15 11  1  0
 16 12  2  0
 17 15  2  0
 18 16  1  0
  6  5  2  0
 17 14  1  0
 18 13  2  0
M  END
> <chembl_id>
CHEMBL108

> <chembl_pref_name>
CARBAMAZEPINE

$$$$

     RDKit          2D

 13 14  0  0  1  0  0  0  0  0999 V2000
   -1.2333    0.1083    0.0000 N   0  0  0  0  0  0  0  0  0  0  0  0
   -1.8083   -0.3042    0.0000 C   0  0  0  0  0  0  0  0  0  0  0  0
   -0.6708   -0.3042    0.0000 C   0  0  0  0  0  0  0  0  0  0  0  0
   -1.5833   -0.9792    0.0000 C   0  0  0  0  0  0  0  0  0  0  0  0
   -2.4250    0.0333    0.0000 C   0  0  0  0  0  0  0  0  0  0  0  0
   -0.8958   -0.9792    0.0000 C   0  0  0  0  0  0  0  0  0  0  0  0
   -0.0208    0.1083    0.0000 O   0  0  0  0  0  0  0  0  0  0  0  0
   -3.0208    1.1083    0.0000 N   0  0  0  0  0  0  0  0  0  0  0  0
   -1.2333    0.8083    0.0000 C   0  0  0  0  0  0  0  0  0  0  0  0
   -2.4250    0.7333    0.0000 C   0  0  0  0  0  0  0  0  0  0  0  0
   -3.0208   -0.3417    0.0000 C   0  0  0  0  0  0  0  0  0  0  0  0
   -3.6333    0.7333    0.0000 C   0  0  0  0  0  0  0  0  0  0  0  0
   -3.6333    0.0333    0.0000 C   0  0  0  0  0  0  0  0  0  0  0  0
  2  1  1  0
  3  1  1  0
  4  2  1  0
  2  5  1  1
  6  3  1  0
  7  3  2  0
  8 10  1  0
  9  1  1  0
 10  5  2  0
 11  5  1  0
 12 13  1  0
 13 11  2  0
  4  6  1  0
  8 12  2  0
M  END
> <chembl_id>
CHEMBL578211

> <chembl_pref_name>
COTININE

$$$$

     RDKit          2D

 16 18  0  0  0  0  0  0  0  0999 V2000
    1.7642    2.1554    0.0000 C   0  0  0  0  0  0  0  0  0  0  0  0
    1.3015    1.4684    0.0000 C   0  0  0  0  0  0  0  0  0  0  0  0
    1.8127    0.8191    0.0000 O   0  0  0  0  0  0  0  0  0  0  0  0
    2.5579    1.9302    0.0000 C   0  0  0  0  0  0  0  0  0  0  0  0
    2.5882    1.1077    0.0000 C   0  0  0  0  0  0  0  0  0  0  0  0
    3.3145    0.7245    0.0000 C   0  0  0  0  0  0  0  0  0  0  0  0
    3.2498    2.3676    0.0000 C   0  0  0  0  0  0  0  0  0  0  0  0
    3.9764    1.9881    0.0000 C   0  0  0  0  0  0  0  0  0  0  0  0
    4.0083    1.1584    0.0000 C   0  0  0  0  0  0  0  0  0  0  0  0
    4.7388    0.7734    0.0000 O   0  0  0  0  0  0  0  0  0  0  0  0
    5.4420    1.2135    0.0000 C   0  0  0  0  0  0  0  0  0  0  0  0
    5.4100    2.0434    0.0000 C   0  0  0  0  0  0  0  0  0  0  0  0
    4.6750    2.4328    0.0000 C   0  0  0  0  0  0  0  0  0  0  0  0
    6.1691    0.8290    0.0000 O   0  0  0  0  0  0  0  0  0  0  0  0
    3.2158    3.1894    0.0000 O   0  0  0  0  0  0  0  0  0  0  0  0
    3.9105    3.6295    0.0000 C   0  0  0  0  0  0  0  0  0  0  0  0
  7  4  1  0
  8  9  1  0
  4  1  1  0
  2  3  1  0
  4  5  2  0
  1  2  2  0
  5  6  1  0
  8 13  1  0
  9 10  1  0
 10 11  1  0
 11 12  1  0
 12 13  2  0
  6  9  2  0
 11 14  2  0
  3  5  1  0
  7 15  1  0
  8  7  2  0
 15 16  1  0
M  END
> <chembl_id>
CHEMBL24171

> <chembl_pref_name>
BERGAPTEN

$$$$

     RDKit          2D

 33 37  0  0  0  0  0  0  0  0999 V2000
   -5.7995  -14.8407    0.0000 C   0  0  0  0  0  0  0  0  0  0  0  0
   -5.8007  -15.6683    0.0000 C   0  0  0  0  0  0  0  0  0  0  0  0
   -5.0878  -16.0813    0.0000 C   0  0  0  0  0  0  0  0  0  0  0  0
   -5.0898  -14.4280    0.0000 C   0  0  0  0  0  0  0  0  0  0  0  0
   -4.3716  -14.8368    0.0000 C   0  0  0  0  0  0  0  0  0  0  0  0
   -4.3664  -15.6683    0.0000 C   0  0  0  0  0  0  0  0  0  0  0  0
   -3.5740  -15.9205    0.0000 N   0  0  0  0  0  0  0  0  0  0  0  0
   -3.0892  -15.2446    0.0000 C   0  0  0  0  0  0  0  0  0  0  0  0
   -3.5824  -14.5750    0.0000 N   0  0  0  0  0  0  0  0  0  0  0  0
   -2.2643  -15.2395    0.0000 O   0  0  0  0  0  0  0  0  0  0  0  0
   -1.8562  -14.5224    0.0000 C   0  0  0  0  0  0  0  0  0  0  0  0
   -3.3142  -16.7034    0.0000 C   0  0  0  0  0  0  0  0  0  0  0  0
   -2.5061  -16.8700    0.0000 C   0  0  0  0  0  0  0  0  0  0  0  0
   -2.2505  -17.6523    0.0000 C   0  0  0  0  0  0  0  0  0  0  0  0
   -1.4433  -17.8190    0.0000 C   0  0  0  0  0  0  0  0  0  0  0  0
   -0.8941  -17.2022    0.0000 C   0  0  0  0  0  0  0  0  0  0  0  0
   -1.1577  -16.4159    0.0000 C   0  0  0  0  0  0  0  0  0  0  0  0
   -1.9643  -16.2529    0.0000 C   0  0  0  0  0  0  0  0  0  0  0  0
   -0.0887  -17.3672    0.0000 C   0  0  0  0  0  0  0  0  0  0  0  0
    0.1712  -18.1514    0.0000 C   0  0  0  0  0  0  0  0  0  0  0  0
    0.9786  -18.3170    0.0000 C   0  0  0  0  0  0  0  0  0  0  0  0
    1.5269  -17.6994    0.0000 C   0  0  0  0  0  0  0  0  0  0  0  0
    1.2622  -16.9135    0.0000 C   0  0  0  0  0  0  0  0  0  0  0  0
    0.4555  -16.7516    0.0000 C   0  0  0  0  0  0  0  0  0  0  0  0
    0.1914  -15.9689    0.0000 C   0  0  0  0  0  0  0  0  0  0  0  0
    0.6695  -15.2966    0.0000 N   0  0  0  0  0  0  0  0  0  0  0  0
    0.1778  -14.6341    0.0000 N   0  0  0  0  0  0  0  0  0  0  0  0
   -0.6043  -14.8970    0.0000 N   0  0  0  0  0  0  0  0  0  0  0  0
   -0.5958  -15.7220    0.0000 N   0  0  0  0  0  0  0  0  0  0  0  0
   -2.2733  -13.8106    0.0000 C   0  0  0  0  0  0  0  0  0  0  0  0
   -5.0899  -16.9063    0.0000 C   0  0  0  0  0  0  0  0  0  0  0  0
   -5.8053  -17.3169    0.0000 O   0  0  0  0  0  0  0  0  0  0  0  0
   -4.3764  -17.3205    0.0000 O   0  0  0  0  0  0  0  0  0  0  0  0
 15 16  2  0
  6  7  1  0
 16 17  1  0
  7  8  1  0
 17 18  2  0
 18 13  1  0
  8  9  2  0
  9  5  1  0
 19 20  2  0
  4  1  1  0
 20 21  1  0
  8 10  1  0
 21 22  2  0
  5  6  1  0
 22 23  1  0
 10 11  1  0
 23 24  2  0
 24 19  1  0
 16 19  1  0
 25 26  2  0
  7 12  1  0
  2  3  1  0
 12 13  1  0
  3  6  2  0
 26 27  1  0
 27 28  2  0
 28 29  1  0
 29 25  1  0
 24 25  1  0
 13 14  2  0
 11 30  1  0
  1  2  2  0
  3 31  1  0
 14 15  1  0
 31 32  2  0
  5  4  2  0
 31 33  1  0
M  END
> <chembl_id>
CHEMBL1016

> <chembl_pref_name>
CANDESARTAN

$$$$

     RDKit          2D

 31 34  0  0  0  0  0  0  0  0999 V2000
   -3.8766    1.3120    0.0000 N   0  0  0  0  0  0  0  0  0  0  0  0
   -4.5911    0.8995    0.0000 C   0  0  0  0  0  0  0  0  0  0  0  0
   -3.8766   -0.3380    0.0000 N   0  0  0  0  0  0  0  0  0  0  0  0
   -3.1622    0.0745    0.0000 C   0  0  0  0  0  0  0  0  0  0  0  0
   -3.1622    0.8995    0.0000 C   0  0  0  0  0  0  0  0  0  0  0  0
   -2.4477   -0.3380    0.0000 C   0  0  0  0  0  0  0  0  0  0  0  0
   -1.7332    0.0745    0.0000 N   0  0  0  0  0  0  0  0  0  0  0  0
   -2.4477    1.3120    0.0000 O   0  0  0  0  0  0  0  0  0  0  0  0
   -3.8766   -1.1630    0.0000 N   0  0  0  0  0  0  0  0  0  0  0  0
   -3.1622   -1.5755    0.0000 C   0  0  0  0  0  0  0  0  0  0  0  0
   -2.4477   -1.1630    0.0000 C   0  0  0  0  0  0  0  0  0  0  0  0
   -1.0188   -1.1630    0.0000 C   0  0  0  0  0  0  0  0  0  0  0  0
   -1.0188   -0.3380    0.0000 C   0  0  0  0  0  0  0  0  0  0  0  0
   -0.3043    0.0745    0.0000 C   0  0  0  0  0  0  0  0  0  0  0  0
   -0.3043   -1.5755    0.0000 C   0  0  0  0  0  0  0  0  0  0  0  0
    0.4102   -1.1630    0.0000 C   0  0  0  0  0  0  0  0  0  0  0  0
    0.4102   -0.3380    0.0000 C   0  0  0  0  0  0  0  0  0  0  0  0
    0.4102    1.3120    0.0000 C   0  0  0  0  0  0  0  0  0  0  0  0
   -0.3043    0.8995    0.0000 O   0  0  0  0  0  0  0  0  0  0  0  0
    1.1246    0.0745    0.0000 C   0  0  0  0  0  0  0  0  0  0  0  0
    1.1246    0.8995    0.0000 N   0  0  0  0  0  0  0  0  0  0  0  0
   -5.0036   -1.6861    0.0000 C   0  0  0  0  0  0  0  0  0  0  0  0
   -4.5911   -2.4006    0.0000 C   0  0  0  0  0  0  0  0  0  0  0  0
   -3.8766   -2.8131    0.0000 C   0  0  0  0  0  0  0  0  0  0  0  0
   -3.1622   -2.4006    0.0000 N   0  0  0  0  0  0  0  0  0  0  0  0
    1.9092   -0.1804    0.0000 N   0  0  0  0  0  0  0  0  0  0  0  0
    2.3942    0.4870    0.0000 N   0  0  0  0  0  0  0  0  0  0  0  0
    1.9093    1.1544    0.0000 C   0  0  0  0  0  0  0  0  0  0  0  0
   -5.4161   -2.4005    0.0000 C   0  0  0  0  0  0  0  0  0  0  0  0
   -3.8766   -3.6381    0.0000 O   0  0  0  0  0  0  0  0  0  0  0  0
    3.2146    0.4008    0.0000 C   0  0  0  0  0  0  0  0  0  0  0  0
  1  2  1  0
  3  4  1  0
  4  5  1  0
  1  5  1  0
  6  7  1  0
  4  6  2  0
  5  8  2  0
  9 10  1  0
 10 11  2  0
  3  9  2  0
 11  6  1  0
 12 13  1  0
  7 13  1  0
 15 16  1  0
 16 17  2  0
 14 17  1  0
 12 15  2  0
 14 13  2  0
 18 19  1  0
 20 21  1  0
 19 14  1  0
 17 20  1  0
 22 23  1  0
 23 24  1  0
 24 25  1  0
 25 10  1  0
 26 27  1  0
 27 28  1  0
 20 26  2  0
 21 28  2  0
 22 29  1  0
 29 23  1  0
 24 30  2  0
 27 31  1  0
M  END
> <chembl_id>
CHEMBL4596392

> <chembl_pref_name>
CRAVACITINIB

$$$$

     RDKit          2D

 30 31  0  0  0  0  0  0  0  0999 V2000
    3.5724    4.5375    0.0000 C   0  0  0  0  0  0  0  0  0  0  0  0
   11.4315    3.3000    0.0000 C   0  0  0  0  0  0  0  0  0  0  0  0
    8.5737    3.3000    0.0000 C   0  0  0  0  0  0  0  0  0  0  0  0
   12.8605    4.9500    0.0000 C   0  0  0  0  0  0  0  0  0  0  0  0
    4.2868    4.9500    0.0000 C   0  0  0  0  0  0  0  0  0  0  0  0
    9.2881    7.0125    0.0000 C   0  0  0  0  0  0  0  0  0  0  0  0
    5.0013    4.5375    0.0000 C   0  0  0  0  0  0  0  0  0  0  0  0
    9.2881    6.1875    0.0000 C   0  0  0  0  0  0  0  0  0  0  0  0
   10.0026    7.4250    0.0000 C   0  0  0  0  0  0  0  0  0  0  0  0
    7.1447    4.9500    0.0000 C   0  0  0  0  0  0  0  0  0  0  0  0
   10.7171    3.7125    0.0000 C   0  0  0  0  0  0  0  0  0  0  0  0
    9.2881    3.7125    0.0000 C   0  0  0  0  0  0  0  0  0  0  0  0
   10.0026    5.7750    0.0000 C   0  0  0  0  0  0  0  0  0  0  0  0
   10.7171    7.0125    0.0000 C   0  0  0  0  0  0  0  0  0  0  0  0
    5.7158    4.9500    0.0000 C   0  0  0  0  0  0  0  0  0  0  0  0
   10.7171    4.5375    0.0000 C   0  0  0  0  0  0  0  0  0  0  0  0
    9.2881    4.5375    0.0000 C   0  0  0  0  0  0  0  0  0  0  0  0
   10.0026    4.9500    0.0000 C   0  0  0  0  0  0  0  0  0  0  0  0
   10.7171    6.1875    0.0000 C   0  0  0  0  0  0  0  0  0  0  0  0
   11.4315    4.9500    0.0000 C   0  0  0  0  0  0  0  0  0  0  0  0
    8.5737    4.9500    0.0000 C   0  0  0  0  0  0  0  0  0  0  0  0
   11.4315    7.4250    0.0000 Cl  0  0  0  0  0  0  0  0  0  0  0  0
   11.4315    5.7750    0.0000 Cl  0  0  0  0  0  0  0  0  0  0  0  0
   10.0026    3.3000    0.0000 N   0  0  0  0  0  0  0  0  0  0  0  0
    5.7158    5.7750    0.0000 O   0  0  0  0  0  0  0  0  0  0  0  0
   11.9165    5.6174    0.0000 O   0  0  0  0  0  0  0  0  0  0  0  0
    8.5737    5.7750    0.0000 O   0  0  0  0  0  0  0  0  0  0  0  0
   12.1460    4.5375    0.0000 O   0  0  0  0  0  0  0  0  0  0  0  0
    6.4302    4.5375    0.0000 O   0  0  0  0  0  0  0  0  0  0  0  0
    7.8592    4.5375    0.0000 O   0  0  0  0  0  0  0  0  0  0  0  0
  5  1  1  0
  7  5  1  0
  8  6  2  0
  9  6  1  0
 11  2  1  0
 12  3  1  0
 13  8  1  0
 14  9  2  0
 15  7  1  0
 16 11  2  0
 17 12  2  0
 18 13  1  0
 18 16  1  0
 18 17  1  0
 19 13  2  0
 19 14  1  0
 20 16  1  0
 21 17  1  0
 22 14  1  0
 23 19  1  0
 24 11  1  0
 24 12  1  0
 25 15  2  0
 26 20  2  0
 27 21  2  0
 28  4  1  0
 28 20  1  0
 29 10  1  0
 29 15  1  0
 30 10  1  0
 30 21  1  0
M  END
> <chembl_id>
CHEMBL1237132

> <chembl_pref_name>
CLEVIDIPINE

$$$$

     RDKit          2D

 38 39  0  0  0  0  0  0  0  0999 V2000
    5.7667   -0.8917    0.0000 S   0  0  0  0  0  0  0  0  0  0  0  0
    6.1167   -0.2750    0.0000 O   0  0  0  0  0  0  0  0  0  0  0  0
    5.4042   -0.2750    0.0000 O   0  0  0  0  0  0  0  0  0  0  0  0
    5.1542   -1.2500    0.0000 C   0  0  0  0  0  0  0  0  0  0  0  0
    6.3792   -1.2458    0.0000 O   0  0  0  0  0  0  0  0  0  0  0  0
    5.1542   -1.9625    0.0000 C   0  0  0  0  0  0  0  0  0  0  0  0
    4.5417   -0.8958    0.0000 C   0  0  0  0  0  0  0  0  0  0  0  0
    3.9292   -1.2500    0.0000 C   0  0  0  0  0  0  0  0  0  0  0  0
    4.5417   -2.3167    0.0000 C   0  0  0  0  0  0  0  0  0  0  0  0
    3.9292   -1.9625    0.0000 C   0  0  0  0  0  0  0  0  0  0  0  0
   -1.2458   -1.6917    0.0000 C   0  0  0  0  0  0  0  0  0  0  0  0
   -0.0208   -1.6917    0.0000 C   0  0  0  0  0  0  0  0  0  0  0  0
   -0.6333   -1.3542    0.0000 C   0  0  0  0  0  0  0  0  0  0  0  0
   -0.0208   -2.4167    0.0000 C   0  0  0  0  0  0  0  0  0  0  0  0
   -1.2458   -2.4167    0.0000 C   0  0  0  0  0  0  0  0  0  0  0  0
   -0.6333   -2.7667    0.0000 N   0  0  0  0  0  0  0  0  0  0  0  0
   -1.8458   -1.3417    0.0000 C   0  0  0  0  0  0  0  0  0  0  0  0
    0.5750   -1.3542    0.0000 C   0  0  0  0  0  0  0  0  0  0  0  0
   -0.6333   -0.2917    0.0000 C   0  0  0  0  0  0  0  0  0  0  0  0
   -0.0458    0.0583    0.0000 C   0  0  0  0  0  0  0  0  0  0  0  0
   -1.8458   -0.6542    0.0000 O   0  0  0  0  0  0  0  0  0  0  0  0
    0.5750   -0.6667    0.0000 O   0  0  0  0  0  0  0  0  0  0  0  0
    0.5750   -2.7667    0.0000 C   0  0  0  0  0  0  0  0  0  0  0  0
   -2.4458   -1.6917    0.0000 O   0  0  0  0  0  0  0  0  0  0  0  0
    1.1875   -1.6917    0.0000 O   0  0  0  0  0  0  0  0  0  0  0  0
   -1.8750   -2.7667    0.0000 C   0  0  0  0  0  0  0  0  0  0  0  0
    0.5542   -0.2292    0.0000 Cl  0  0  0  0  0  0  0  0  0  0  0  0
    2.9625   -2.7667    0.0000 N   0  0  0  0  0  0  0  0  0  0  0  0
   -1.2708    0.0583    0.0000 C   0  0  0  0  0  0  0  0  0  0  0  0
    1.1875   -2.4167    0.0000 O   0  0  0  0  0  0  0  0  0  0  0  0
   -0.0458    0.7583    0.0000 C   0  0  0  0  0  0  0  0  0  0  0  0
    2.3542   -2.4167    0.0000 C   0  0  0  0  0  0  0  0  0  0  0  0
    1.7750   -1.3417    0.0000 C   0  0  0  0  0  0  0  0  0  0  0  0
    1.7750   -2.7667    0.0000 C   0  0  0  0  0  0  0  0  0  0  0  0
   -3.0583   -1.3417    0.0000 C   0  0  0  0  0  0  0  0  0  0  0  0
   -1.2708    0.7583    0.0000 C   0  0  0  0  0  0  0  0  0  0  0  0
    2.3792   -1.6542    0.0000 C   0  0  0  0  0  0  0  0  0  0  0  0
   -0.6625    1.1208    0.0000 C   0  0  0  0  0  0  0  0  0  0  0  0
  2  1  2  0
  3  1  2  0
  4  1  1  0
  5  1  1  0
  6  4  1  0
  7  4  2  0
  8  7  1  0
  9  6  2  0
 10  8  2  0
  9 10  1  0
 12 13  1  0
 13 11  1  0
 14 16  1  0
 15 11  2  0
 16 15  1  0
 17 11  1  0
 18 12  1  0
 19 13  1  0
 20 19  1  0
 21 17  2  0
 22 18  2  0
 23 14  1  0
 24 17  1  0
 25 18  1  0
 26 15  1  0
 27 20  1  0
 28 32  1  0
 29 19  2  0
 30 23  1  0
 31 20  2  0
 32 34  1  0
 33 25  1  0
 34 30  1  0
 35 24  1  0
 36 29  1  0
 37 33  1  0
 38 36  2  0
 12 14  2  0
 31 38  1  0
M  END
> <chembl_id>
CHEMBL1200402

> <chembl_pref_name>
AMLODIPINE BESYLATE

$$$$

     RDKit          2D

 13 13  0  0  0  0  0  0  0  0999 V2000
   -3.7056  -22.8042    0.0000 C   0  0  0  0  0  0  0  0  0  0  0  0
   -3.7068  -23.6315    0.0000 C   0  0  0  0  0  0  0  0  0  0  0  0
   -2.9920  -24.0444    0.0000 C   0  0  0  0  0  0  0  0  0  0  0  0
   -2.2755  -23.6311    0.0000 N   0  0  0  0  0  0  0  0  0  0  0  0
   -2.2784  -22.8005    0.0000 C   0  0  0  0  0  0  0  0  0  0  0  0
   -2.9938  -22.3914    0.0000 C   0  0  0  0  0  0  0  0  0  0  0  0
   -2.9963  -21.5664    0.0000 N   0  0  0  0  0  0  0  0  0  0  0  0
   -1.5655  -22.3852    0.0000 C   0  0  0  0  0  0  0  0  0  0  0  0
   -0.8494  -22.7950    0.0000 N   0  0  0  0  0  0  0  0  0  0  0  0
   -0.1365  -22.3798    0.0000 N   0  0  0  0  0  0  0  0  0  0  0  0
    0.5795  -22.7896    0.0000 C   0  0  0  0  0  0  0  0  0  0  0  0
    1.2924  -22.3743    0.0000 N   0  0  0  0  0  0  0  0  0  0  0  0
    0.5826  -23.6146    0.0000 S   0  0  0  0  0  0  0  0  0  0  0  0
  6  7  1  0
  6  1  1  0
  5  8  1  0
  1  2  2  0
  8  9  2  0
  3  4  2  0
  9 10  1  0
  4  5  1  0
 10 11  1  0
  2  3  1  0
 11 12  1  0
  5  6  2  0
 11 13  2  0
M  END
> <chembl_id>
CHEMBL231616

> <chembl_pref_name>
TRIAPINE

$$$$

     RDKit          2D

128140  0  0  1  0  0  0  0  0999 V2000
   -3.1458   -1.5625    0.0000 C   0  0  0  0  0  0  0  0  0  0  0  0
    2.8917   -1.5625    0.0000 C   0  0  0  0  0  0  0  0  0  0  0  0
   -2.6458   -1.8417    0.0000 N   0  0  0  0  0  0  0  0  0  0  0  0
    0.3750    2.4583    0.0000 C   0  0  0  0  0  0  0  0  0  0  0  0
    0.3792    1.8708    0.0000 C   0  0  0  0  0  0  0  0  0  0  0  0
   -4.0958   -2.7792    0.0000 N   0  0  0  0  0  0  0  0  0  0  0  0
   -4.0958   -2.0042    0.0000 C   0  0  0  0  0  0  0  0  0  0  0  0
   -1.1333   -1.5625    0.0000 N   0  0  0  0  0  0  0  0  0  0  0  0
    0.3792   -1.8500    0.0000 N   0  0  0  0  0  0  0  0  0  0  0  0
    2.3792   -1.8500    0.0000 C   0  0  0  0  0  0  0  0  0  0  0  0
   -3.0833   -4.2375    0.0000 C   0  0  0  0  0  0  0  0  0  0  0  0
   -2.1458   -1.5625    0.0000 C   0  0  0  0  0  0  0  0  0  0  0  0
   -3.5875   -3.9542    0.0000 C   0  0  0  0  0  0  0  0  0  0  0  0
   -0.6333   -1.8500    0.0000 C   0  0  0  0  0  0  0  0  0  0  0  0
   -2.1458   -3.7875    0.0000 C   0  0  0  0  0  0  0  0  0  0  0  0
   -0.1333    0.5833    0.0000 C   0  0  0  0  0  0  0  0  0  0  0  0
   -3.5875   -3.0667    0.0000 C   0  0  0  0  0  0  0  0  0  0  0  0
    0.8792    2.7458    0.0000 C   0  0  0  0  0  0  0  0  0  0  0  0
    1.8875   -1.5625    0.0000 N   0  0  0  0  0  0  0  0  0  0  0  0
   -0.1333   -1.5625    0.0000 C   0  0  0  0  0  0  0  0  0  0  0  0
    3.3917   -1.8542    0.0000 N   0  0  0  0  0  0  0  0  0  0  0  0
   -0.6333    0.2958    0.0000 C   0  0  0  0  0  0  0  0  0  0  0  0
    0.3750    0.3083    0.0000 C   0  0  0  0  0  0  0  0  0  0  0  0
    0.8792   -1.5625    0.0000 C   0  0  0  0  0  0  0  0  0  0  0  0
   -1.6458   -1.8500    0.0000 C   0  0  0  0  0  0  0  0  0  0  0  0
    0.8875    1.5833    0.0000 O   0  0  0  0  0  0  0  0  0  0  0  0
   -3.1458   -0.5792    0.0000 C   0  0  0  0  0  0  0  0  0  0  0  0
    0.3792    4.1542    0.0000 C   0  0  0  0  0  0  0  0  0  0  0  0
   -0.1458    1.5708    0.0000 O   0  0  0  0  0  0  0  0  0  0  0  0
   -4.1833    1.1625    0.0000 C   0  0  0  0  0  0  0  0  0  0  0  0
   -0.1333   -0.5667    0.0000 C   0  0  0  0  0  0  0  0  0  0  0  0
    1.3792    2.4583    0.0000 C   0  0  0  0  0  0  0  0  0  0  0  0
   -1.1458    0.5833    0.0000 O   0  0  0  0  0  0  0  0  0  0  0  0
    0.8667    0.5958    0.0000 O   0  0  0  0  0  0  0  0  0  0  0  0
    1.3792   -1.8500    0.0000 C   0  0  0  0  0  0  0  0  0  0  0  0
   -3.0833   -4.8167    0.0000 C   0  0  0  0  0  0  0  0  0  0  0  0
   -0.1333    3.3083    0.0000 C   0  0  0  0  0  0  0  0  0  0  0  0
    3.8917   -1.5625    0.0000 C   0  0  0  0  0  0  0  0  0  0  0  0
   -3.6750    0.3083    0.0000 C   0  0  0  0  0  0  0  0  0  0  0  0
    1.3875    1.8833    0.0000 C   0  0  0  0  0  0  0  0  0  0  0  0
    2.9167   -0.5542    0.0000 C   0  0  0  0  0  0  0  0  0  0  0  0
    0.3750    3.5958    0.0000 C   0  0  0  0  0  0  0  0  0  0  0  0
   -4.1833    0.6000    0.0000 C   0  0  0  0  0  0  0  0  0  0  0  0
   -2.1458   -3.2167    0.0000 C   0  0  0  0  0  0  0  0  0  0  0  0
   -0.6375    3.5958    0.0000 O   0  0  0  0  0  0  0  0  0  0  0  0
   -3.1708    0.5958    0.0000 O   0  0  0  0  0  0  0  0  0  0  0  0
   -1.6208   -2.9292    0.0000 C   0  0  0  0  0  0  0  0  0  0  0  0
   -0.1333    4.4500    0.0000 C   0  0  0  0  0  0  0  0  0  0  0  0
   -3.6708    1.4500    0.0000 C   0  0  0  0  0  0  0  0  0  0  0  0
   -2.6458   -0.2917    0.0000 C   0  0  0  0  0  0  0  0  0  0  0  0
    1.3792   -2.4167    0.0000 C   0  0  0  0  0  0  0  0  0  0  0  0
    2.3792   -0.2542    0.0000 C   0  0  0  0  0  0  0  0  0  0  0  0
   -0.1333    2.7333    0.0000 O   0  0  0  0  0  0  0  0  0  0  0  0
   -3.0625   -2.7792    0.0000 C   0  0  0  0  0  0  0  0  0  0  0  0
    0.3792   -0.2792    0.0000 C   0  0  0  0  0  0  0  0  0  0  0  0
   -0.6375   -0.2792    0.0000 C   0  0  0  0  0  0  0  0  0  0  0  0
   -1.6458    0.2875    0.0000 C   0  0  0  0  0  0  0  0  0  0  0  0
    1.3792    0.3125    0.0000 C   0  0  0  0  0  0  0  0  0  0  0  0
   -0.6333    4.1667    0.0000 C   0  0  0  0  0  0  0  0  0  0  0  0
   -3.1708    1.1625    0.0000 C   0  0  0  0  0  0  0  0  0  0  0  0
   -3.6750   -0.2667    0.0000 O   0  0  0  0  0  0  0  0  0  0  0  0
   -3.5958   -5.1000    0.0000 C   0  0  0  0  0  0  0  0  0  0  0  0
    0.9500    4.2417    0.0000 N   0  0  0  0  0  0  0  0  0  0  0  0
   -2.1458    0.5750    0.0000 C   0  0  0  0  0  0  0  0  0  0  0  0
    1.8750    0.6083    0.0000 C   0  0  0  0  0  0  0  0  0  0  0  0
    0.8792   -2.7042    0.0000 C   0  0  0  0  0  0  0  0  0  0  0  0
   -2.6458    0.2833    0.0000 C   0  0  0  0  0  0  0  0  0  0  0  0
    2.3792    0.3208    0.0000 C   0  0  0  0  0  0  0  0  0  0  0  0
   -1.6500   -4.0792    0.0000 C   0  0  0  0  0  0  0  0  0  0  0  0
   -4.0958   -4.2375    0.0000 C   0  0  0  0  0  0  0  0  0  0  0  0
    4.4000   -1.8417    0.0000 C   0  0  0  0  0  0  0  0  0  0  0  0
   -4.5958   -1.7167    0.0000 O   0  0  0  0  0  0  0  0  0  0  0  0
    2.3792   -2.4167    0.0000 O   0  0  0  0  0  0  0  0  0  0  0  0
   -0.6333   -2.4167    0.0000 O   0  0  0  0  0  0  0  0  0  0  0  0
   -2.1458   -0.9875    0.0000 O   0  0  0  0  0  0  0  0  0  0  0  0
   -4.0958   -4.8125    0.0000 C   0  0  0  0  0  0  0  0  0  0  0  0
    0.8792   -0.9875    0.0000 O   0  0  0  0  0  0  0  0  0  0  0  0
    3.0292    4.0417    0.0000 C   0  0  0  0  0  0  0  0  0  0  0  0
    3.6125    4.1250    0.0000 C   0  0  0  0  0  0  0  0  0  0  0  0
    3.8875   -0.9875    0.0000 O   0  0  0  0  0  0  0  0  0  0  0  0
   -2.1458   -0.5792    0.0000 C   0  0  0  0  0  0  0  0  0  0  0  0
   -1.1458   -3.2292    0.0000 C   0  0  0  0  0  0  0  0  0  0  0  0
    1.8792   -0.5500    0.0000 C   0  0  0  0  0  0  0  0  0  0  0  0
   -3.0500   -2.1792    0.0000 O   0  0  0  0  0  0  0  0  0  0  0  0
    1.3792   -0.2667    0.0000 C   0  0  0  0  0  0  0  0  0  0  0  0
   -1.6458   -0.2875    0.0000 C   0  0  0  0  0  0  0  0  0  0  0  0
    0.8792   -3.2792    0.0000 O   0  0  0  0  0  0  0  0  0  0  0  0
    4.9000   -1.5542    0.0000 C   0  0  0  0  0  0  0  0  0  0  0  0
   -4.7708    1.2125    0.0000 N   0  0  0  0  0  0  0  0  0  0  0  0
   -1.1458   -3.8042    0.0000 C   0  0  0  0  0  0  0  0  0  0  0  0
    0.8792    3.3208    0.0000 O   0  0  0  0  0  0  0  0  0  0  0  0
    2.8167    3.5208    0.0000 C   0  0  0  0  0  0  0  0  0  0  0  0
    2.6667    4.4917    0.0000 C   0  0  0  0  0  0  0  0  0  0  0  0
    3.9792    3.6833    0.0000 C   0  0  0  0  0  0  0  0  0  0  0  0
    3.8292    4.6542    0.0000 C   0  0  0  0  0  0  0  0  0  0  0  0
    1.8792    2.7458    0.0000 O   0  0  0  0  0  0  0  0  0  0  0  0
   -2.5833   -5.1000    0.0000 O   0  0  0  0  0  0  0  0  0  0  0  0
    4.4042   -2.4167    0.0000 N   0  0  0  0  0  0  0  0  0  0  0  0
    0.3792   -2.4167    0.0000 N   0  0  0  0  0  0  0  0  0  0  0  0
    1.3125    3.8000    0.0000 C   0  0  0  0  0  0  0  0  0  0  0  0
   -3.6625    2.0250    0.0000 O   0  0  0  0  0  0  0  0  0  0  0  0
   -0.1250    5.0250    0.0000 O   0  0  0  0  0  0  0  0  0  0  0  0
    1.8667    1.1833    0.0000 Cl  0  0  0  0  0  0  0  0  0  0  0  0
   -2.1458    1.1500    0.0000 Cl  0  0  0  0  0  0  0  0  0  0  0  0
    3.3917   -0.2542    0.0000 O   0  0  0  0  0  0  0  0  0  0  0  0
   -2.5458   -3.0875    0.0000 O   0  0  0  0  0  0  0  0  0  0  0  0
    4.7667    4.2917    0.0000 C   0  0  0  0  0  0  0  0  0  0  0  0
    1.8917    3.8833    0.0000 C   0  0  0  0  0  0  0  0  0  0  0  0
    4.4000    4.7417    0.0000 C   0  0  0  0  0  0  0  0  0  0  0  0
    4.5542    3.7708    0.0000 C   0  0  0  0  0  0  0  0  0  0  0  0
    2.1000    4.4042    0.0000 C   0  0  0  0  0  0  0  0  0  0  0  0
    2.2417    3.4333    0.0000 C   0  0  0  0  0  0  0  0  0  0  0  0
   -1.6583   -4.6542    0.0000 O   0  0  0  0  0  0  0  0  0  0  0  0
    1.8917    1.5958    0.0000 C   0  0  0  0  0  0  0  0  0  0  0  0
    5.3667    4.3792    0.0000 Cl  0  0  0  0  0  0  0  0  0  0  0  0
   -4.6083   -5.0917    0.0000 O   0  0  0  0  0  0  0  0  0  0  0  0
    0.6667    4.6542    0.0000 C   0  0  0  0  0  0  0  0  0  0  0  0
   -4.5500    1.6125    0.0000 C   0  0  0  0  0  0  0  0  0  0  0  0
    2.3917    1.8833    0.0000 O   0  0  0  0  0  0  0  0  0  0  0  0
   -1.1458    4.4542    0.0000 C   0  0  0  0  0  0  0  0  0  0  0  0
   -2.6708    1.4458    0.0000 C   0  0  0  0  0  0  0  0  0  0  0  0
    5.4000   -1.8417    0.0000 C   0  0  0  0  0  0  0  0  0  0  0  0
    3.9042   -2.7125    0.0000 C   0  0  0  0  0  0  0  0  0  0  0  0
    5.4042   -2.4167    0.0000 C   0  0  0  0  0  0  0  0  0  0  0  0
    5.9042   -1.5542    0.0000 C   0  0  0  0  0  0  0  0  0  0  0  0
   -0.7771   -2.3453    0.0000 H   0  0  0  0  0  0  0  0  0  0  0  0
   -0.1280   -2.5625    0.0000 H   0  0  0  0  0  0  0  0  0  0  0  0
   -3.9889   -1.0247    0.0000 H   0  0  0  0  0  0  0  0  0  0  0  0
  2 10  1  0
  1  3  1  0
  4  5  1  0
  5 29  1  1
  6  7  1  0
  7  1  1  0
  8 25  1  0
 20  9  1  0
 10 19  1  0
 11 13  2  0
 12  3  1  0
 13 17  1  0
 14  8  1  0
 15 11  1  0
 16 22  1  0
 17  6  1  0
 18  4  1  0
 19 35  1  0
 20 14  1  0
  2 21  1  1
 22 33  1  0
 23 16  2  0
 24  9  1  0
 25 12  1  0
 26  5  1  0
 27  1  1  0
 28 42  1  0
 29 16  1  0
 30 43  1  0
 31 20  1  0
 32 40  1  0
 33 57  1  0
 34 23  1  0
 35 24  1  0
 36 11  1  0
 37 53  1  6
 38 21  1  0
 39 61  1  1
 40 26  1  0
 41  2  1  0
 42 37  1  0
 43 39  1  0
 44 47  2  0
 45 37  1  0
 46 39  1  0
 47 25  1  0
 48 59  1  0
 49 60  1  0
 50 27  1  0
 35 51  1  1
 52 83  2  0
  4 53  1  6
 17 54  1  6
 55 31  2  0
 56 22  2  0
 57 86  1  0
 58 34  1  0
 59 45  1  0
 60 46  1  0
 27 61  1  6
 62 76  1  0
 28 63  1  0
 64 67  1  0
 65 58  1  0
 66 51  1  0
 67 50  2  0
 68 65  2  0
 69 15  2  0
 70 13  1  0
 71 38  1  0
 72  7  2  0
 73 10  2  0
 74 14  2  0
 75 12  2  0
 76 70  2  0
 77 24  2  0
 78 92  2  0
 79 78  1  0
 80 38  2  0
 81 50  1  0
 82 47  1  0
 83 85  1  0
 84 54  2  0
 85 58  2  0
 86 81  2  0
 87 66  2  0
 71 88  1  1
 30 89  1  6
 90 82  2  0
 18 91  1  1
 92112  1  0
 93111  2  0
 94 79  2  0
 95 79  1  0
 32 96  1  6
 97 36  1  0
 71 98  1  0
 99 66  1  0
100 63  1  0
 49101  1  1
 48102  1  6
103 65  1  0
104 64  1  0
 41105  1  1
106 54  1  0
107109  1  0
108100  1  0
109 95  2  0
110 94  1  0
111108  1  0
112108  2  0
113 69  1  0
 40114  1  1
115107  1  0
116 76  1  0
 28117  1  6
118 30  1  0
119114  1  0
 59120  1  1
 60121  1  6
122 88  1  0
123 98  1  0
124122  1  0
125122  1  0
 57 64  2  0
 44 15  1  0
 30 49  1  0
 90 69  1  0
 36 62  2  0
 31 56  1  0
 55 23  1  0
 18 32  1  0
 68 52  1  0
 41 52  1  0
 28 48  1  0
 93 78  1  0
110107  2  0
 25126  1  1
 20127  1  6
  1128  1  1
M  END
> <chembl_id>
CHEMBL1688530

> <chembl_pref_name>
ORITAVANCIN

$$$$

     RDKit          2D

 24 23  0  0  0  0  0  0  0  0999 V2000
   -4.4671   -3.5334    0.0000 C   0  0  0  0  0  0  0  0  0  0  0  0
   -4.8996   -2.8261    0.0000 C   0  0  0  0  0  0  0  0  0  0  0  0
   -4.5074   -2.0956    0.0000 C   0  0  0  0  0  0  0  0  0  0  0  0
   -4.9399   -1.3882    0.0000 C   0  0  0  0  0  0  0  0  0  0  0  0
   -4.5477   -0.6577    0.0000 C   0  0  0  0  0  0  0  0  0  0  0  0
   -4.9802    0.0497    0.0000 C   0  0  0  0  0  0  0  0  0  0  0  0
   -4.5858    0.7743    0.0000 C   0  0  0  0  0  0  0  0  0  0  0  0
   -3.7611    0.7951    0.0000 C   0  0  0  0  0  0  0  0  0  0  0  0
   -3.7818    1.6198    0.0000 C   0  0  0  0  0  0  0  0  0  0  0  0
   -3.0780    2.0502    0.0000 C   0  0  0  0  0  0  0  0  0  0  0  0
   -2.9363    0.8158    0.0000 H   0  0  0  0  0  0  0  0  0  0  0  0
   -3.7403   -0.0297    0.0000 H   0  0  0  0  0  0  0  0  0  0  0  0
   -2.3533    1.6558    0.0000 C   0  0  0  0  0  0  0  0  0  0  0  0
   -1.6490    2.0864    0.0000 C   0  0  0  0  0  0  0  0  0  0  0  0
   -0.9235    1.6924    0.0000 C   0  0  0  0  0  0  0  0  0  0  0  0
   -0.2191    2.1231    0.0000 C   0  0  0  0  0  0  0  0  0  0  0  0
    0.5064    1.7290    0.0000 C   0  0  0  0  0  0  0  0  0  0  0  0
    1.2108    2.1597    0.0000 C   0  0  0  0  0  0  0  0  0  0  0  0
    1.9363    1.7656    0.0000 C   0  0  0  0  0  0  0  0  0  0  0  0
    2.6407    2.1963    0.0000 C   0  0  0  0  0  0  0  0  0  0  0  0
    3.3662    1.8022    0.0000 O   0  0  0  0  0  0  0  0  0  0  0  0
    4.0706    2.2329    0.0000 C   0  0  0  0  0  0  0  0  0  0  0  0
    4.7961    1.8388    0.0000 C   0  0  0  0  0  0  0  0  0  0  0  0
    2.6196    3.0210    0.0000 O   0  0  0  0  0  0  0  0  0  0  0  0
  1  2  1  0
  2  3  1  0
  3  4  1  0
  4  5  1  0
  5  6  1  0
  6  7  2  0
  7  8  1  0
  8  9  1  0
  9 10  2  0
  8 11  1  0
  8 12  1  0
 10 13  1  0
 14 15  1  0
 15 16  1  0
 16 17  1  0
 17 18  1  0
 18 19  1  0
 19 20  1  0
 20 21  1  0
 21 22  1  0
 22 23  1  0
 13 14  1  0
 20 24  2  0
M  ISO  2  11   2  12   2
M  END
> <chembl_id>
CHEMBL5095415

> <chembl_pref_name>
DEULINOLEATE ETHYL

$$$$

     RDKit          2D

 28 29  0  0  0  0  0  0  0  0999 V2000
    2.4542   -3.6292    0.0000 C   0  0  0  0  0  0  0  0  0  0  0  0
    3.0792   -3.2875    0.0000 C   0  0  0  0  0  0  0  0  0  0  0  0
    3.6917   -5.7250    0.0000 C   0  0  0  0  0  0  0  0  0  0  0  0
   -0.6125   -3.2917    0.0000 C   0  0  0  0  0  0  0  0  0  0  0  0
    2.4542   -4.3375    0.0000 C   0  0  0  0  0  0  0  0  0  0  0  0
    3.6917   -3.6292    0.0000 N   0  0  0  0  0  0  0  0  0  0  0  0
    1.8167   -3.2875    0.0000 C   0  0  0  0  0  0  0  0  0  0  0  0
    5.5042   -3.2875    0.0000 N   0  0  0  0  0  0  0  0  0  0  0  0
    3.0792   -4.7000    0.0000 O   0  0  0  0  0  0  0  0  0  0  0  0
    3.0917   -2.5875    0.0000 O   0  0  0  0  0  0  0  0  0  0  0  0
    3.0792   -5.4000    0.0000 C   0  0  0  0  0  0  0  0  0  0  0  0
    0.0042   -3.6292    0.0000 C   0  0  0  0  0  0  0  0  0  0  0  0
    1.8167   -4.6875    0.0000 C   0  0  0  0  0  0  0  0  0  0  0  0
   -0.2625   -2.6792    0.0000 F   0  0  0  0  0  0  0  0  0  0  0  0
   -0.9708   -2.6792    0.0000 F   0  0  0  0  0  0  0  0  0  0  0  0
    3.3375   -6.3375    0.0000 F   0  0  0  0  0  0  0  0  0  0  0  0
    4.0417   -6.3375    0.0000 F   0  0  0  0  0  0  0  0  0  0  0  0
    4.2917   -5.3542    0.0000 F   0  0  0  0  0  0  0  0  0  0  0  0
   -1.2208   -3.6625    0.0000 F   0  0  0  0  0  0  0  0  0  0  0  0
    1.2167   -3.6292    0.0000 C   0  0  0  0  0  0  0  0  0  0  0  0
    0.6042   -3.2750    0.0000 O   0  0  0  0  0  0  0  0  0  0  0  0
    4.2917   -3.2875    0.0000 C   0  0  0  0  0  0  0  0  0  0  0  0
    4.9042   -3.6292    0.0000 C   0  0  0  0  0  0  0  0  0  0  0  0
    1.2167   -4.3375    0.0000 C   0  0  0  0  0  0  0  0  0  0  0  0
    6.1167   -3.6292    0.0000 C   0  0  0  0  0  0  0  0  0  0  0  0
    4.9042   -4.3292    0.0000 C   0  0  0  0  0  0  0  0  0  0  0  0
    6.1167   -4.3375    0.0000 C   0  0  0  0  0  0  0  0  0  0  0  0
    5.5042   -4.6875    0.0000 C   0  0  0  0  0  0  0  0  0  0  0  0
  2  1  1  0
  3 11  1  0
  4 12  1  0
  5  1  2  0
  6  2  1  0
  7  1  1  0
  8 23  1  0
  9  5  1  0
 10  2  2  0
 11  9  1  0
 12 21  1  0
 13  5  1  0
 14  4  1  0
 15  4  1  0
 16  3  1  0
 17  3  1  0
 18  3  1  0
 19  4  1  0
 20  7  2  0
 21 20  1  0
 22  6  1  0
 23 22  1  0
 24 20  1  0
 25  8  1  0
 26 23  1  0
 27 25  1  0
 28 26  1  0
 13 24  2  0
 28 27  1  0
M  END
> <chembl_id>
CHEMBL652

> <chembl_pref_name>
FLECAINIDE

$$$$

     RDKit          2D

 32 35  0  0  0  0  0  0  0  0999 V2000
    0.6167    1.5708    0.0000 C   0  0  0  0  0  0  0  0  0  0  0  0
   -0.2458   -1.8417    0.0000 C   0  0  0  0  0  0  0  0  0  0  0  0
    0.1000    2.0875    0.0000 C   0  0  0  0  0  0  0  0  0  0  0  0
   -0.2500   -2.6417    0.0000 C   0  0  0  0  0  0  0  0  0  0  0  0
   -0.2583   -3.4500    0.0000 N   0  0  0  0  0  0  0  0  0  0  0  0
    0.5042    0.0833    0.0000 N   0  0  0  0  0  0  0  0  0  0  0  0
   -0.0458    1.2458    0.0000 C   0  0  0  0  0  0  0  0  0  0  0  0
    1.2417    1.2083    0.0000 C   0  0  0  0  0  0  0  0  0  0  0  0
   -0.2458   -1.0375    0.0000 C   0  0  0  0  0  0  0  0  0  0  0  0
    1.1667    2.3625    0.0000 C   0  0  0  0  0  0  0  0  0  0  0  0
    0.0542    2.9833    0.0000 O   0  0  0  0  0  0  0  0  0  0  0  0
    0.4500   -2.2417    0.0000 C   0  0  0  0  0  0  0  0  0  0  0  0
   -0.9458   -2.2417    0.0000 C   0  0  0  0  0  0  0  0  0  0  0  0
    0.4917   -0.7000    0.0000 C   0  0  0  0  0  0  0  0  0  0  0  0
   -0.0500    0.4750    0.0000 C   0  0  0  0  0  0  0  0  0  0  0  0
    1.2375    0.4458    0.0000 C   0  0  0  0  0  0  0  0  0  0  0  0
   -0.5208    1.7625    0.0000 O   0  0  0  0  0  0  0  0  0  0  0  0
    1.8917    2.2708    0.0000 C   0  0  0  0  0  0  0  0  0  0  0  0
    0.8750    3.0208    0.0000 C   0  0  0  0  0  0  0  0  0  0  0  0
   -1.6375   -1.8375    0.0000 C   0  0  0  0  0  0  0  0  0  0  0  0
   -0.9458   -3.0375    0.0000 C   0  0  0  0  0  0  0  0  0  0  0  0
    0.4417   -3.0417    0.0000 C   0  0  0  0  0  0  0  0  0  0  0  0
    1.1417   -1.8417    0.0000 C   0  0  0  0  0  0  0  0  0  0  0  0
    1.1375   -3.4417    0.0000 C   0  0  0  0  0  0  0  0  0  0  0  0
    1.8292   -2.2417    0.0000 C   0  0  0  0  0  0  0  0  0  0  0  0
   -2.3333   -2.2375    0.0000 C   0  0  0  0  0  0  0  0  0  0  0  0
   -1.6375   -3.4417    0.0000 C   0  0  0  0  0  0  0  0  0  0  0  0
    2.3292    2.8333    0.0000 C   0  0  0  0  0  0  0  0  0  0  0  0
    1.3500    3.5958    0.0000 C   0  0  0  0  0  0  0  0  0  0  0  0
   -2.3375   -3.0375    0.0000 C   0  0  0  0  0  0  0  0  0  0  0  0
    1.8292   -3.0500    0.0000 C   0  0  0  0  0  0  0  0  0  0  0  0
    2.0167    3.5083    0.0000 C   0  0  0  0  0  0  0  0  0  0  0  0
  2  9  1  0
  3  1  1  0
  4  2  1  0
  5  4  3  0
  6 16  1  0
  7  1  1  0
  8  1  1  0
  9 14  1  0
 10  1  1  0
 11  3  2  0
 12  2  1  0
 13  2  1  0
 14  6  1  0
 15  7  1  0
 16  8  1  0
 17  3  1  0
 18 10  2  0
 19 10  1  0
 20 13  2  0
 21 13  1  0
 22 12  2  0
 23 12  1  0
 24 22  1  0
 25 23  2  0
 26 20  1  0
 27 21  2  0
 28 18  1  0
 29 19  2  0
 30 27  1  0
 31 25  1  0
 32 29  1  0
  6 15  1  0
 28 32  2  0
 26 30  2  0
 24 31  2  0
M  END
> <chembl_id>
CHEMBL1201321

> <chembl_pref_name>
DIFENOXIN

$$$$

     RDKit          2D

138148  0  0  0  0  0  0  0  0999 V2000
   10.6346   -1.7184    0.0000 P   0  0  0  0  0  0  0  0  0  0  0  0
   11.0525   -0.9772    0.0000 O   0  0  0  0  0  0  0  0  0  0  0  0
   11.3659   -2.1413    0.0000 O   0  0  0  0  0  0  0  0  0  0  0  0
    9.9133   -2.1413    0.0000 O   0  0  0  0  0  0  0  0  0  0  0  0
   10.2168   -0.9772    0.0000 O   0  0  0  0  0  0  0  0  0  0  0  0
   19.1988   -1.0696    0.0000 C   0  0  0  0  0  0  0  0  0  0  0  0
   27.1928   -1.0099    0.0000 C   0  0  0  0  0  0  0  0  0  0  0  0
   19.9300   -1.6417    0.0000 N   0  0  0  0  0  0  0  0  0  0  0  0
   20.4374    4.6710    0.0000 C   0  0  0  0  0  0  0  0  0  0  0  0
   20.8702    5.4222    0.0000 C   0  0  0  0  0  0  0  0  0  0  0  0
   18.4675   -2.5769    0.0000 N   0  0  0  0  0  0  0  0  0  0  0  0
   18.4675   -1.5621    0.0000 C   0  0  0  0  0  0  0  0  0  0  0  0
   21.9149   -1.0696    0.0000 N   0  0  0  0  0  0  0  0  0  0  0  0
   23.8997   -1.3830    0.0000 N   0  0  0  0  0  0  0  0  0  0  0  0
   26.5063   -1.3830    0.0000 C   0  0  0  0  0  0  0  0  0  0  0  0
   19.8255   -4.2334    0.0000 C   0  0  0  0  0  0  0  0  0  0  0  0
   20.5867   -1.2089    0.0000 C   0  0  0  0  0  0  0  0  0  0  0  0
   19.1092   -3.8006    0.0000 C   0  0  0  0  0  0  0  0  0  0  0  0
   22.5566   -1.4477    0.0000 C   0  0  0  0  0  0  0  0  0  0  0  0
   20.5518   -3.8006    0.0000 C   0  0  0  0  0  0  0  0  0  0  0  0
   23.2132    1.7361    0.0000 C   0  0  0  0  0  0  0  0  0  0  0  0
   19.0943   -2.9848    0.0000 C   0  0  0  0  0  0  0  0  0  0  0  0
   19.6713    4.6710    0.0000 C   0  0  0  0  0  0  0  0  0  0  0  0
   25.8547   -0.9403    0.0000 N   0  0  0  0  0  0  0  0  0  0  0  0
   23.2132   -1.0696    0.0000 C   0  0  0  0  0  0  0  0  0  0  0  0
   27.8246   -1.4128    0.0000 N   0  0  0  0  0  0  0  0  0  0  0  0
   23.8997    1.3182    0.0000 C   0  0  0  0  0  0  0  0  0  0  0  0
   22.5118    1.3182    0.0000 C   0  0  0  0  0  0  0  0  0  0  0  0
   24.5414   -0.9203    0.0000 C   0  0  0  0  0  0  0  0  0  0  0  0
   21.2582   -1.5173    0.0000 C   0  0  0  0  0  0  0  0  0  0  0  0
   20.4921    6.0141    0.0000 O   0  0  0  0  0  0  0  0  0  0  0  0
   19.1988   -0.0398    0.0000 C   0  0  0  0  0  0  0  0  0  0  0  0
   18.0795    1.9301    0.0000 C   0  0  0  0  0  0  0  0  0  0  0  0
   23.2132    2.4822    0.0000 O   0  0  0  0  0  0  0  0  0  0  0  0
   16.2886   -0.8606    0.0000 C   0  0  0  0  0  0  0  0  0  0  0  0
   23.2132    0.1542    0.0000 C   0  0  0  0  0  0  0  0  0  0  0  0
   19.3131    5.3327    0.0000 C   0  0  0  0  0  0  0  0  0  0  0  0
   24.5066    1.7958    0.0000 O   0  0  0  0  0  0  0  0  0  0  0  0
   21.8552    1.6863    0.0000 O   0  0  0  0  0  0  0  0  0  0  0  0
   25.1930   -1.3134    0.0000 C   0  0  0  0  0  0  0  0  0  0  0  0
   19.8255   -5.0393    0.0000 C   0  0  0  0  0  0  0  0  0  0  0  0
   19.3629    2.6763    0.0000 C   0  0  0  0  0  0  0  0  0  0  0  0
   28.5260   -1.0696    0.0000 C   0  0  0  0  0  0  0  0  0  0  0  0
   17.5572   -0.1294    0.0000 C   0  0  0  0  0  0  0  0  0  0  0  0
   19.7062    6.0141    0.0000 C   0  0  0  0  0  0  0  0  0  0  0  0
   27.1928    0.1939    0.0000 C   0  0  0  0  0  0  0  0  0  0  0  0
   18.9301    1.9301    0.0000 C   0  0  0  0  0  0  0  0  0  0  0  0
   17.1393   -0.8606    0.0000 C   0  0  0  0  0  0  0  0  0  0  0  0
   20.5518   -3.0594    0.0000 C   0  0  0  0  0  0  0  0  0  0  0  0
   18.9301    3.4075    0.0000 O   0  0  0  0  0  0  0  0  0  0  0  0
   17.1393    0.6019    0.0000 O   0  0  0  0  0  0  0  0  0  0  0  0
   21.2582   -2.6366    0.0000 C   0  0  0  0  0  0  0  0  0  0  0  0
   17.6417    2.6763    0.0000 C   0  0  0  0  0  0  0  0  0  0  0  0
   15.8658   -0.1294    0.0000 C   0  0  0  0  0  0  0  0  0  0  0  0
   19.9101    0.4377    0.0000 C   0  0  0  0  0  0  0  0  0  0  0  0
   25.2279   -2.0596    0.0000 C   0  0  0  0  0  0  0  0  0  0  0  0
   26.5412    0.5869    0.0000 C   0  0  0  0  0  0  0  0  0  0  0  0
   20.8254    3.9895    0.0000 O   0  0  0  0  0  0  0  0  0  0  0  0
   19.6315   -2.4774    0.0000 C   0  0  0  0  0  0  0  0  0  0  0  0
   22.5118    0.5571    0.0000 C   0  0  0  0  0  0  0  0  0  0  0  0
   23.8997    0.5571    0.0000 C   0  0  0  0  0  0  0  0  0  0  0  0
   25.1632    1.3630    0.0000 C   0  0  0  0  0  0  0  0  0  0  0  0
   21.2433    1.2585    0.0000 C   0  0  0  0  0  0  0  0  0  0  0  0
   18.0795    3.4075    0.0000 C   0  0  0  0  0  0  0  0  0  0  0  0
   16.2886    0.6019    0.0000 C   0  0  0  0  0  0  0  0  0  0  0  0
   18.3929    0.3929    0.0000 O   0  0  0  0  0  0  0  0  0  0  0  0
   19.1092   -5.4571    0.0000 C   0  0  0  0  0  0  0  0  0  0  0  0
   17.4378    1.3630    0.0000 N   0  0  0  0  0  0  0  0  0  0  0  0
   21.2433    0.4974    0.0000 C   0  0  0  0  0  0  0  0  0  0  0  0
   25.8696    1.7510    0.0000 C   0  0  0  0  0  0  0  0  0  0  0  0
   24.4370   -2.4873    0.0000 C   0  0  0  0  0  0  0  0  0  0  0  0
   20.5867    0.1094    0.0000 C   0  0  0  0  0  0  0  0  0  0  0  0
   26.5412    1.3580    0.0000 C   0  0  0  0  0  0  0  0  0  0  0  0
   21.2234   -4.2334    0.0000 C   0  0  0  0  0  0  0  0  0  0  0  0
   18.4078   -4.2334    0.0000 C   0  0  0  0  0  0  0  0  0  0  0  0
   29.1777   -1.4477    0.0000 C   0  0  0  0  0  0  0  0  0  0  0  0
   17.8407   -1.1890    0.0000 O   0  0  0  0  0  0  0  0  0  0  0  0
   26.5063   -2.0745    0.0000 O   0  0  0  0  0  0  0  0  0  0  0  0
   20.5867   -0.4876    0.0000 O   0  0  0  0  0  0  0  0  0  0  0  0
   22.5417   -2.2635    0.0000 O   0  0  0  0  0  0  0  0  0  0  0  0
   18.4078   -5.0393    0.0000 C   0  0  0  0  0  0  0  0  0  0  0  0
   24.5414   -0.2339    0.0000 O   0  0  0  0  0  0  0  0  0  0  0  0
   14.3784    2.6414    0.0000 C   0  0  0  0  0  0  0  0  0  0  0  0
   13.6472    3.0593    0.0000 C   0  0  0  0  0  0  0  0  0  0  0  0
   28.5260   -0.2936    0.0000 O   0  0  0  0  0  0  0  0  0  0  0  0
   19.9101    1.2087    0.0000 C   0  0  0  0  0  0  0  0  0  0  0  0
   21.9596   -3.0097    0.0000 C   0  0  0  0  0  0  0  0  0  0  0  0
   25.8547    0.1939    0.0000 C   0  0  0  0  0  0  0  0  0  0  0  0
   19.3928   -1.7462    0.0000 O   0  0  0  0  0  0  0  0  0  0  0  0
   25.1632    0.6317    0.0000 C   0  0  0  0  0  0  0  0  0  0  0  0
   20.5369    1.6167    0.0000 C   0  0  0  0  0  0  0  0  0  0  0  0
   24.4469   -3.3380    0.0000 O   0  0  0  0  0  0  0  0  0  0  0  0
   29.1777   -2.0993    0.0000 C   0  0  0  0  0  0  0  0  0  0  0  0
   15.5574   -1.2785    0.0000 N   0  0  0  0  0  0  0  0  0  0  0  0
   21.9596   -3.8355    0.0000 C   0  0  0  0  0  0  0  0  0  0  0  0
   19.2137    3.9895    0.0000 O   0  0  0  0  0  0  0  0  0  0  0  0
   14.3883    1.7808    0.0000 C   0  0  0  0  0  0  0  0  0  0  0  0
   15.1196    3.0593    0.0000 C   0  0  0  0  0  0  0  0  0  0  0  0
   13.6472    3.9000    0.0000 C   0  0  0  0  0  0  0  0  0  0  0  0
   12.9258    2.6265    0.0000 C   0  0  0  0  0  0  0  0  0  0  0  0
   18.4774    5.3327    0.0000 O   0  0  0  0  0  0  0  0  0  0  0  0
   20.5518   -5.4273    0.0000 O   0  0  0  0  0  0  0  0  0  0  0  0
   29.8692   -1.1144    0.0000 N   0  0  0  0  0  0  0  0  0  0  0  0
   23.7007   -2.0695    0.0000 N   0  0  0  0  0  0  0  0  0  0  0  0
   16.5871    1.3630    0.0000 C   0  0  0  0  0  0  0  0  0  0  0  0
   15.0201   -0.1294    0.0000 O   0  0  0  0  0  0  0  0  0  0  0  0
   16.7910    2.6862    0.0000 O   0  0  0  0  0  0  0  0  0  0  0  0
   21.9695    0.0945    0.0000 Cl  0  0  0  0  0  0  0  0  0  0  0  0
   25.8696    2.4822    0.0000 Cl  0  0  0  0  0  0  0  0  0  0  0  0
   27.9390    0.6168    0.0000 O   0  0  0  0  0  0  0  0  0  0  0  0
   20.4026   -2.6515    0.0000 O   0  0  0  0  0  0  0  0  0  0  0  0
   12.1846    3.8950    0.0000 C   0  0  0  0  0  0  0  0  0  0  0  0
   15.8559    1.7907    0.0000 C   0  0  0  0  0  0  0  0  0  0  0  0
   12.9159    4.3278    0.0000 C   0  0  0  0  0  0  0  0  0  0  0  0
   12.1846    3.0443    0.0000 C   0  0  0  0  0  0  0  0  0  0  0  0
   15.1246    1.3630    0.0000 C   0  0  0  0  0  0  0  0  0  0  0  0
   15.8559    2.6414    0.0000 C   0  0  0  0  0  0  0  0  0  0  0  0
   21.2234   -5.0393    0.0000 O   0  0  0  0  0  0  0  0  0  0  0  0
   19.3131    6.7056    0.0000 C   0  0  0  0  0  0  0  0  0  0  0  0
   11.4484    4.3128    0.0000 Cl  0  0  0  0  0  0  0  0  0  0  0  0
   17.7064   -5.3974    0.0000 O   0  0  0  0  0  0  0  0  0  0  0  0
   18.2884    1.1192    0.0000 C   0  0  0  0  0  0  0  0  0  0  0  0
   16.2886   -1.7014    0.0000 C   0  0  0  0  0  0  0  0  0  0  0  0
   18.6117    6.7056    0.0000 O   0  0  0  0  0  0  0  0  0  0  0  0
   17.6467    4.1636    0.0000 C   0  0  0  0  0  0  0  0  0  0  0  0
   15.8708    1.3430    0.0000 C   0  0  0  0  0  0  0  0  0  0  0  0
   28.4365   -2.5371    0.0000 C   0  0  0  0  0  0  0  0  0  0  0  0
   30.5706   -1.5820    0.0000 C   0  0  0  0  0  0  0  0  0  0  0  0
   28.4365   -3.3878    0.0000 C   0  0  0  0  0  0  0  0  0  0  0  0
   27.6903   -2.0993    0.0000 C   0  0  0  0  0  0  0  0  0  0  0  0
   22.5566   -0.5523    0.0000 H   0  0  0  0  0  0  0  0  0  0  0  0
   18.6018   -0.6866    0.0000 H   0  0  0  0  0  0  0  0  0  0  0  0
   21.8552   -1.8456    0.0000 H   0  0  0  0  0  0  0  0  0  0  0  0
   13.9755   -4.3677    0.0000 P   0  0  0  0  0  0  0  0  0  0  0  0
   14.3933   -3.6265    0.0000 O   0  0  0  0  0  0  0  0  0  0  0  0
   14.7067   -4.7906    0.0000 O   0  0  0  0  0  0  0  0  0  0  0  0
   13.2541   -4.7906    0.0000 O   0  0  0  0  0  0  0  0  0  0  0  0
   13.5576   -3.6265    0.0000 O   0  0  0  0  0  0  0  0  0  0  0  0
  2  1  2  0
  3  1  1  0
  4  1  1  0
  5  1  1  0
  7 15  1  0
  8  6  1  0
  9 10  1  0
 10 34  1  1
 11 12  1  0
 12  6  1  0
 13 30  1  0
 14 25  1  0
 15 24  1  0
 16 18  1  0
 17  8  1  0
 18 22  1  0
 19 13  1  0
 20 49  1  0
 21 28  1  0
 22 11  1  0
 23  9  1  0
 24 40  1  0
 25 19  1  0
  7 26  1  1
 27 61  1  0
 28 39  1  0
 29 14  1  0
 30 17  1  0
 31 10  1  0
 32  6  1  0
 33 47  1  0
 34 21  1  0
 35 48  1  0
 36 25  1  0
 37 23  1  0
 38 27  1  0
 39 63  1  0
 40 29  1  0
 41 16  2  0
 42 58  1  1
 43 26  1  0
 44 66  1  1
 45 31  1  0
 46  7  1  0
 47 42  1  0
 48 44  1  0
 49 52  2  0
 50 42  1  0
 51 44  1  0
 52 30  1  0
 53 64  1  0
 54 65  1  0
 55 32  1  0
 40 56  1  1
 57 88  1  0
  9 58  1  6
 22 59  1  6
 60 36  1  0
 61 36  2  0
 62 38  1  0
 63 91  2  0
 64 50  1  0
 65 51  1  0
 32 66  1  6
 67 81  2  0
 68 33  1  0
 69 72  2  0
 70 62  2  0
 71 56  1  0
 72 55  1  0
 73 70  1  0
 74 95  1  0
 75 18  2  0
 76 43  1  0
 77 12  2  0
 78 15  2  0
 79 17  2  0
 80 19  2  0
 81 75  1  0
 82 29  2  0
 83 97  1  0
 84 83  1  0
 85 43  2  0
 86 55  2  0
 87 52  1  0
 88 90  2  0
 89 59  2  0
 90 62  1  0
 91 86  1  0
 92 71  2  0
 76 93  1  6
 35 94  1  6
 95 87  2  0
 23 96  1  1
 97116  2  0
 98117  1  0
 99 84  2  0
100 84  1  0
 37101  1  6
102 41  1  0
103 76  1  0
104 71  1  0
105 68  1  0
 54106  1  1
 53107  1  1
108 69  1  0
109 70  1  0
 46110  1  1
111 59  1  0
112114  2  0
113105  1  0
114 99  1  0
115100  2  0
116113  1  0
117113  2  0
118 74  1  0
 45119  1  1
120112  1  0
121 81  1  0
 33122  1  1
 35123  1  0
124119  1  0
 64125  1  6
 65126  1  6
127 93  1  0
128103  1  0
129127  1  0
130127  1  0
 25131  1  6
  6132  1  1
 30133  1  1
 63 69  1  0
 20 16  1  0
 54 35  1  0
 74 20  2  0
 67 41  1  0
 28 60  2  0
 21 27  2  0
 45 37  1  0
 57 73  2  0
 57 46  1  0
 33 53  1  0
 98 83  2  0
115112  1  0
135134  2  0
136134  1  0
137134  1  0
138134  1  0
M  END
> <chembl_id>
CHEMBL3989766

> <chembl_pref_name>
ORITAVANCIN DIPHOSPHATE

$$$$

     RDKit          2D

 25 26  0  0  0  0  0  0  0  0999 V2000
    6.3667   -1.7917    0.0000 C   0  0  0  0  0  0  0  0  0  0  0  0
    7.5917   -1.7917    0.0000 C   0  0  0  0  0  0  0  0  0  0  0  0
    6.9792   -2.1500    0.0000 C   0  0  0  0  0  0  0  0  0  0  0  0
    6.3667   -1.0875    0.0000 C   0  0  0  0  0  0  0  0  0  0  0  0
    7.5917   -1.0875    0.0000 C   0  0  0  0  0  0  0  0  0  0  0  0
    6.9792   -0.7292    0.0000 N   0  0  0  0  0  0  0  0  0  0  0  0
    8.8167   -3.1458    0.0000 N   0  0  0  0  0  0  0  0  0  0  0  0
    6.9792   -3.5125    0.0000 C   0  0  0  0  0  0  0  0  0  0  0  0
    7.5917   -3.8625    0.0000 C   0  0  0  0  0  0  0  0  0  0  0  0
    8.2083   -2.1458    0.0000 C   0  0  0  0  0  0  0  0  0  0  0  0
    5.7542   -2.1458    0.0000 C   0  0  0  0  0  0  0  0  0  0  0  0
    9.4292   -3.5000    0.0000 O   0  0  0  0  0  0  0  0  0  0  0  0
    8.8167   -2.4375    0.0000 O   0  0  0  0  0  0  0  0  0  0  0  0
    8.2083   -2.8542    0.0000 O   0  0  0  0  0  0  0  0  0  0  0  0
    5.7542   -2.8542    0.0000 O   0  0  0  0  0  0  0  0  0  0  0  0
    8.8208   -1.7917    0.0000 O   0  0  0  0  0  0  0  0  0  0  0  0
    5.1417   -1.7917    0.0000 O   0  0  0  0  0  0  0  0  0  0  0  0
    5.7542   -0.7333    0.0000 C   0  0  0  0  0  0  0  0  0  0  0  0
    8.2083   -0.7333    0.0000 C   0  0  0  0  0  0  0  0  0  0  0  0
    6.3667   -3.8625    0.0000 C   0  0  0  0  0  0  0  0  0  0  0  0
    7.5958   -4.5667    0.0000 C   0  0  0  0  0  0  0  0  0  0  0  0
    9.4333   -2.1458    0.0000 C   0  0  0  0  0  0  0  0  0  0  0  0
    4.5292   -2.1458    0.0000 C   0  0  0  0  0  0  0  0  0  0  0  0
    6.3667   -4.5708    0.0000 C   0  0  0  0  0  0  0  0  0  0  0  0
    6.9792   -4.9250    0.0000 C   0  0  0  0  0  0  0  0  0  0  0  0
  2  3  1  0
  3  1  1  0
  4  1  2  0
  5  2  2  0
  6  4  1  0
  7  9  1  0
  8  3  1  0
  9  8  1  0
 10  2  1  0
 11  1  1  0
 12  7  1  0
 13  7  2  0
 14 10  2  0
 15 11  2  0
 16 10  1  0
 17 11  1  0
 18  4  1  0
 19  5  1  0
 20  8  2  0
 21  9  2  0
 22 16  1  0
 23 17  1  0
 24 20  1  0
 25 21  1  0
  6  5  1  0
 25 24  2  0
M  CHG  2   7   1  12  -1
M  END
> <chembl_id>
CHEMBL193

> <chembl_pref_name>
NIFEDIPINE

$$$$

     RDKit          2D

 23 26  0  0  0  0  0  0  0  0999 V2000
   17.3332    0.7562    0.0000 C   0  0  0  0  0  0  0  0  0  0  0  0
   18.7667   -0.0734    0.0000 N   0  0  0  0  0  0  0  0  0  0  0  0
   18.7667    0.7562    0.0000 C   0  0  0  0  0  0  0  0  0  0  0  0
   18.0478    1.1733    0.0000 N   0  0  0  0  0  0  0  0  0  0  0  0
   18.0478   -0.4858    0.0000 C   0  0  0  0  0  0  0  0  0  0  0  0
   17.3271   -0.0750    0.0000 C   0  0  0  0  0  0  0  0  0  0  0  0
   16.7136   -0.6335    0.0000 C   0  0  0  0  0  0  0  0  0  0  0  0
   17.0552   -1.3894    0.0000 C   0  0  0  0  0  0  0  0  0  0  0  0
   17.8797   -1.2982    0.0000 N   0  0  0  0  0  0  0  0  0  0  0  0
   16.6154    1.1725    0.0000 C   0  0  0  0  0  0  0  0  0  0  0  0
   16.6123    1.9975    0.0000 C   0  0  0  0  0  0  0  0  0  0  0  0
   15.8268    2.2495    0.0000 N   0  0  0  0  0  0  0  0  0  0  0  0
   15.3443    1.5803    0.0000 N   0  0  0  0  0  0  0  0  0  0  0  0
   15.8318    0.9148    0.0000 C   0  0  0  0  0  0  0  0  0  0  0  0
   14.5194    1.5772    0.0000 C   0  0  0  0  0  0  0  0  0  0  0  0
   14.1043    2.2900    0.0000 C   0  0  0  0  0  0  0  0  0  0  0  0
   14.4370    3.0453    0.0000 C   0  0  0  0  0  0  0  0  0  0  0  0
   13.8218    3.5949    0.0000 C   0  0  0  0  0  0  0  0  0  0  0  0
   13.1089    3.1797    0.0000 C   0  0  0  0  0  0  0  0  0  0  0  0
   13.2836    2.3736    0.0000 C   0  0  0  0  0  0  0  0  0  0  0  0
   14.1096    0.8611    0.0000 C   0  0  0  0  0  0  0  0  0  0  0  0
   13.2847    0.8581    0.0000 C   0  0  0  0  0  0  0  0  0  0  0  0
   12.4569    0.8662    0.0000 N   0  0  0  0  0  0  0  0  0  0  0  0
  1  6  1  0
  1  4  2  0
 11 12  2  0
 12 13  1  0
 13 14  1  0
 14 10  2  0
  1 10  1  0
  5  2  1  0
 13 15  1  0
  2  3  2  0
 15 16  1  6
 16 17  1  0
  6  7  1  0
  7  8  2  0
  8  9  1  0
  9  5  1  0
 17 18  1  0
 18 19  1  0
 19 20  1  0
 20 16  1  0
 10 11  1  0
 15 21  1  0
  3  4  1  0
 21 22  1  0
  5  6  2  0
 22 23  3  0
M  END
> <chembl_id>
CHEMBL1789941

> <chembl_pref_name>
RUXOLITINIB

$$$$

     RDKit          2D

 24 26  0  0  0  0  0  0  0  0999 V2000
    4.6167   -4.1542    0.0000 Cl  0  0  0  0  0  0  0  0  0  0  0  0
    1.0500   -3.0417    0.0000 C   0  0  0  0  0  0  0  0  0  0  0  0
    0.3417   -3.0417    0.0000 N   0  0  0  0  0  0  0  0  0  0  0  0
    1.4875   -3.6000    0.0000 C   0  0  0  0  0  0  0  0  0  0  0  0
    1.4125   -2.4375    0.0000 N   0  0  0  0  0  0  0  0  0  0  0  0
    1.3292   -4.2917    0.0000 C   0  0  0  0  0  0  0  0  0  0  0  0
    0.6917   -4.6042    0.0000 O   0  0  0  0  0  0  0  0  0  0  0  0
   -0.1083   -3.6000    0.0000 C   0  0  0  0  0  0  0  0  0  0  0  0
    0.0542   -4.2917    0.0000 C   0  0  0  0  0  0  0  0  0  0  0  0
    2.1333   -1.2250    0.0000 N   0  0  0  0  0  0  0  0  0  0  0  0
    2.1667   -3.3917    0.0000 C   0  0  0  0  0  0  0  0  0  0  0  0
    1.0667   -1.8167    0.0000 C   0  0  0  0  0  0  0  0  0  0  0  0
    2.1167   -2.4500    0.0000 C   0  0  0  0  0  0  0  0  0  0  0  0
    1.8500   -4.7792    0.0000 C   0  0  0  0  0  0  0  0  0  0  0  0
    1.4250   -1.2167    0.0000 C   0  0  0  0  0  0  0  0  0  0  0  0
    2.4875   -1.8375    0.0000 C   0  0  0  0  0  0  0  0  0  0  0  0
    2.6875   -3.8750    0.0000 C   0  0  0  0  0  0  0  0  0  0  0  0
    2.5292   -4.5667    0.0000 C   0  0  0  0  0  0  0  0  0  0  0  0
    3.3667   -3.6667    0.0000 Cl  0  0  0  0  0  0  0  0  0  0  0  0
    2.5000   -0.6167    0.0000 C   0  0  0  0  0  0  0  0  0  0  0  0
   -0.7875   -3.3917    0.0000 C   0  0  0  0  0  0  0  0  0  0  0  0
   -0.4708   -4.7792    0.0000 C   0  0  0  0  0  0  0  0  0  0  0  0
   -1.3083   -3.8750    0.0000 C   0  0  0  0  0  0  0  0  0  0  0  0
   -1.1458   -4.5667    0.0000 C   0  0  0  0  0  0  0  0  0  0  0  0
  3  2  2  0
  4  2  1  0
  5  2  1  0
  6  4  2  0
  7  6  1  0
  8  3  1  0
  9  8  2  0
 10 16  1  0
 11  4  1  0
 12  5  1  0
 13  5  1  0
 14  6  1  0
 15 12  1  0
 16 13  1  0
 17 11  2  0
 18 17  1  0
 19 17  1  0
 20 10  1  0
 21  8  1  0
 22  9  1  0
 23 21  2  0
 24 23  1  0
 10 15  1  0
  9  7  1  0
 18 14  2  0
 24 22  2  0
M  END
> <chembl_id>
CHEMBL1201060

> <chembl_pref_name>
LOXAPINE HYDROCHLORIDE

$$$$

     RDKit          2D

 28 32  0  0  0  0  0  0  0  0999 V2000
    0.3241   -0.3757    0.0000 C   0  0  0  0  0  0  0  0  0  0  0  0
   -0.5009   -0.3757    0.0000 C   0  0  0  0  0  0  0  0  0  0  0  0
   -0.9134   -1.0902    0.0000 C   0  0  0  0  0  0  0  0  0  0  0  0
   -0.5009   -1.8047    0.0000 C   0  0  0  0  0  0  0  0  0  0  0  0
    0.3241   -1.8047    0.0000 C   0  0  0  0  0  0  0  0  0  0  0  0
   -1.0843   -2.3880    0.0000 C   0  0  0  0  0  0  0  0  0  0  0  0
   -1.9093   -2.3880    0.0000 N   0  0  0  0  0  0  0  0  0  0  0  0
   -0.6718   -3.1025    0.0000 O   0  0  0  0  0  0  0  0  0  0  0  0
    0.9075   -2.3880    0.0000 O   0  0  0  0  0  0  0  0  0  0  0  0
    1.5616    0.3388    0.0000 C   0  0  0  0  0  0  0  0  0  0  0  0
    0.7366    0.3388    0.0000 C   0  0  0  0  0  0  0  0  0  0  0  0
    0.7366   -1.0902    0.0000 C   0  0  0  0  0  0  0  0  0  0  0  0
    1.9741   -0.3757    0.0000 C   0  0  0  0  0  0  0  0  0  0  0  0
    2.7991   -0.3757    0.0000 C   0  0  0  0  0  0  0  0  0  0  0  0
    1.5616   -1.0902    0.0000 C   0  0  0  0  0  0  0  0  0  0  0  0
    1.9741   -1.8046    0.0000 C   0  0  0  0  0  0  0  0  0  0  0  0
    2.7991   -1.8046    0.0000 C   0  0  0  0  0  0  0  0  0  0  0  0
    3.2116   -1.0901    0.0000 C   0  0  0  0  0  0  0  0  0  0  0  0
    2.1450    0.9222    0.0000 N   0  0  0  0  0  0  0  0  0  0  0  0
    2.7284    1.5055    0.0000 C   0  0  0  0  0  0  0  0  0  0  0  0
    3.4428    1.0930    0.0000 C   0  0  0  0  0  0  0  0  0  0  0  0
    4.2678    1.0930    0.0000 C   0  0  0  0  0  0  0  0  0  0  0  0
    3.8553    0.3786    0.0000 C   0  0  0  0  0  0  0  0  0  0  0  0
    1.1491   -0.3757    0.0000 O   0  0  0  0  0  0  0  0  0  0  0  0
    2.7284    0.3388    0.0000 C   0  0  0  0  0  0  0  0  0  0  0  0
    2.3866   -1.0902    0.0000 C   0  0  0  0  0  0  0  0  0  0  0  0
    1.1491    1.0533    0.0000 H   0  0  0  0  0  0  0  0  0  0  0  0
    3.2116   -2.5191    0.0000 O   0  0  0  0  0  0  0  0  0  0  0  0
  1  2  1  0
  2  3  2  0
  3  4  1  0
  4  5  2  0
  5 12  1  0
  4  6  1  0
  6  7  1  0
  6  8  2  0
  5  9  1  0
 11  1  1  0
 10 11  1  0
 10 13  1  0
 12 15  1  0
  1 12  2  0
 14 13  1  0
 14 18  1  0
 15 16  1  0
 16 17  1  0
 17 18  1  0
 13 15  1  0
 10 19  1  0
 19 20  1  0
 20 21  1  0
 21 22  1  0
 21 23  1  0
 22 23  1  0
 13 24  1  1
 19 25  1  0
 15 26  1  1
 26 25  1  0
 10 27  1  6
 17 28  2  0
M  END
> <chembl_id>
CHEMBL426084

> <chembl_pref_name>
SAMIDORPHAN

$$$$

     RDKit          2D

 26 27  0  0  0  0  0  0  0  0999 V2000
    0.4000   -4.5042    0.0000 O   0  0  0  0  0  0  0  0  0  0  0  0
    2.5833   -2.8833    0.0000 N   0  0  0  0  0  0  0  0  0  0  0  0
    1.8750   -2.8875    0.0000 C   0  0  0  0  0  0  0  0  0  0  0  0
    1.8750   -2.1750    0.0000 C   0  0  0  0  0  0  0  0  0  0  0  0
    2.5875   -2.1750    0.0000 C   0  0  0  0  0  0  0  0  0  0  0  0
    3.1917   -3.2375    0.0000 C   0  0  0  0  0  0  0  0  0  0  0  0
    1.2500   -1.8167    0.0000 N   0  0  0  0  0  0  0  0  0  0  0  0
    3.2000   -1.8208    0.0000 S   0  0  0  0  0  0  0  0  0  0  0  0
    0.6292   -2.1708    0.0000 C   0  0  0  0  0  0  0  0  0  0  0  0
    3.8042   -2.8875    0.0000 C   0  0  0  0  0  0  0  0  0  0  0  0
    3.1875   -3.9500    0.0000 C   0  0  0  0  0  0  0  0  0  0  0  0
    0.0125   -1.8167    0.0000 C   0  0  0  0  0  0  0  0  0  0  0  0
    3.8125   -2.1792    0.0000 C   0  0  0  0  0  0  0  0  0  0  0  0
    1.3708   -3.3917    0.0000 O   0  0  0  0  0  0  0  0  0  0  0  0
    0.6292   -2.8833    0.0000 O   0  0  0  0  0  0  0  0  0  0  0  0
    2.5667   -4.3000    0.0000 O   0  0  0  0  0  0  0  0  0  0  0  0
   -0.6042   -2.1708    0.0000 C   0  0  0  0  0  0  0  0  0  0  0  0
    4.4167   -3.2500    0.0000 Cl  0  0  0  0  0  0  0  0  0  0  0  0
    0.0125   -1.1042    0.0000 N   0  0  0  0  0  0  0  0  0  0  0  0
    3.7958   -4.3083    0.0000 O   0  0  0  0  0  0  0  0  0  0  0  0
   -0.6042   -2.8750    0.0000 C   0  0  0  0  0  0  0  0  0  0  0  0
   -1.2208   -1.8125    0.0000 C   0  0  0  0  0  0  0  0  0  0  0  0
   -1.8333   -2.1667    0.0000 C   0  0  0  0  0  0  0  0  0  0  0  0
   -1.2167   -3.2375    0.0000 C   0  0  0  0  0  0  0  0  0  0  0  0
   -1.8333   -2.8792    0.0000 C   0  0  0  0  0  0  0  0  0  0  0  0
    2.5792   -1.4542    0.0000 H   0  0  0  0  0  0  0  0  0  0  0  0
  3  2  1  0
  4  3  1  0
  5  2  1  0
  6  2  1  0
  4  7  1  1
  8  5  1  0
  9  7  1  0
 10  6  2  0
 11  6  1  0
 12  9  1  0
 13 10  1  0
 14  3  2  0
 15  9  2  0
 16 11  2  0
 17 12  1  0
 18 10  1  0
 12 19  1  1
 20 11  1  0
 21 17  1  0
 22 17  2  0
 23 22  1  0
 24 21  2  0
 25 24  1  0
  5 26  1  6
  4  5  1  0
  8 13  1  0
 25 23  2  0
M  END
> <chembl_id>
CHEMBL1201018

> <chembl_pref_name>
CEFACLOR

$$$$

     RDKit          2D

 18 19  0  0  0  0  0  0  0  0999 V2000
   -2.3183    0.2775    0.0000 O   0  0  0  0  0  0  0  0  0  0  0  0
   -2.8651   -0.3402    0.0000 C   0  0  0  0  0  0  0  0  0  0  0  0
   -2.4467   -1.0511    0.0000 C   0  0  0  0  0  0  0  0  0  0  0  0
   -1.6412   -0.8729    0.0000 C   0  0  0  0  0  0  0  0  0  0  0  0
   -1.5618   -0.0517    0.0000 C   0  0  0  0  0  0  0  0  0  0  0  0
   -0.1364    1.6042    0.0000 N   0  0  0  0  0  0  0  0  0  0  0  0
   -0.8508    1.1917    0.0000 C   0  0  0  0  0  0  0  0  0  0  0  0
   -0.8508    0.3667    0.0000 N   0  0  0  0  0  0  0  0  0  0  0  0
   -0.1364   -0.0458    0.0000 C   0  0  0  0  0  0  0  0  0  0  0  0
    0.5781    0.3667    0.0000 C   0  0  0  0  0  0  0  0  0  0  0  0
    0.5781    1.1917    0.0000 C   0  0  0  0  0  0  0  0  0  0  0  0
   -1.5653    1.6042    0.0000 O   0  0  0  0  0  0  0  0  0  0  0  0
    1.2926    1.6042    0.0000 O   0  0  0  0  0  0  0  0  0  0  0  0
   -3.6863   -0.2608    0.0000 C   0  0  0  0  0  0  0  0  0  0  0  0
   -4.1656   -0.9323    0.0000 O   0  0  0  0  0  0  0  0  0  0  0  0
   -2.7760   -1.8076    0.0000 O   0  0  0  0  0  0  0  0  0  0  0  0
   -1.4587   -1.6774    0.0000 F   0  0  0  0  0  0  0  0  0  0  0  0
   -0.8205   -0.9565    0.0000 F   0  0  0  0  0  0  0  0  0  0  0  0
  1  2  1  0
  2  3  1  0
  3  4  1  0
  4  5  1  0
  1  5  1  0
  6  7  1  0
  7  8  1  0
  8  9  1  0
  9 10  1  0
 10 11  1  0
  6 11  1  0
  7 12  2  0
 11 13  1  6
  5  8  1  1
  2 14  1  1
 14 15  1  0
  3 16  1  6
  4 17  1  0
  4 18  1  0
M  END
> <chembl_id>
CHEMBL3237547

> <chembl_pref_name>
CEDAZURIDINE

$$$$

     RDKit          2D

 30 31  0  0  0  0  0  0  0  0999 V2000
    3.8625   -6.0792    0.0000 C   0  0  0  0  0  0  0  0  0  0  0  0
    5.0792   -6.0792    0.0000 C   0  0  0  0  0  0  0  0  0  0  0  0
    4.4667   -5.7167    0.0000 C   0  0  0  0  0  0  0  0  0  0  0  0
    3.8625   -6.7875    0.0000 C   0  0  0  0  0  0  0  0  0  0  0  0
    5.0792   -6.7875    0.0000 C   0  0  0  0  0  0  0  0  0  0  0  0
    3.2417   -5.7292    0.0000 C   0  0  0  0  0  0  0  0  0  0  0  0
    4.4667   -7.1375    0.0000 N   0  0  0  0  0  0  0  0  0  0  0  0
    5.7250   -3.6000    0.0000 N   0  0  0  0  0  0  0  0  0  0  0  0
    4.4667   -5.0042    0.0000 C   0  0  0  0  0  0  0  0  0  0  0  0
    5.6875   -5.7417    0.0000 C   0  0  0  0  0  0  0  0  0  0  0  0
    5.0917   -3.9667    0.0000 C   0  0  0  0  0  0  0  0  0  0  0  0
    5.0917   -4.6542    0.0000 C   0  0  0  0  0  0  0  0  0  0  0  0
    2.6292   -6.0917    0.0000 O   0  0  0  0  0  0  0  0  0  0  0  0
    6.3417   -4.0042    0.0000 O   0  0  0  0  0  0  0  0  0  0  0  0
    5.7250   -2.8917    0.0000 O   0  0  0  0  0  0  0  0  0  0  0  0
    3.2417   -5.0167    0.0000 O   0  0  0  0  0  0  0  0  0  0  0  0
    5.6875   -5.0542    0.0000 O   0  0  0  0  0  0  0  0  0  0  0  0
    6.3042   -6.1125    0.0000 O   0  0  0  0  0  0  0  0  0  0  0  0
    3.2250   -7.1167    0.0000 C   0  0  0  0  0  0  0  0  0  0  0  0
    5.7000   -7.1375    0.0000 C   0  0  0  0  0  0  0  0  0  0  0  0
    3.8542   -4.6542    0.0000 C   0  0  0  0  0  0  0  0  0  0  0  0
    2.0042   -5.7292    0.0000 C   0  0  0  0  0  0  0  0  0  0  0  0
    4.4667   -3.5917    0.0000 C   0  0  0  0  0  0  0  0  0  0  0  0
    3.8542   -3.9500    0.0000 C   0  0  0  0  0  0  0  0  0  0  0  0
    8.1375   -5.7500    0.0000 O   0  0  0  0  0  0  0  0  0  0  0  0
    6.9125   -5.7500    0.0000 C   0  0  0  0  0  0  0  0  0  0  0  0
    7.5292   -6.1125    0.0000 C   0  0  0  0  0  0  0  0  0  0  0  0
    8.7417   -6.0917    0.0000 C   0  0  0  0  0  0  0  0  0  0  0  0
    1.4000   -6.0792    0.0000 C   0  0  0  0  0  0  0  0  0  0  0  0
    2.0042   -5.0167    0.0000 C   0  0  0  0  0  0  0  0  0  0  0  0
  2  3  1  0
  3  1  1  0
  4  1  2  0
  5  7  1  0
  6  1  1  0
  7  4  1  0
  8 11  1  0
  9  3  1  0
 10  2  1  0
 11 12  1  0
 12  9  2  0
 13  6  1  0
 14  8  1  0
 15  8  2  0
 16  6  2  0
 17 10  2  0
 18 10  1  0
 19  4  1  0
 20  5  1  0
 21  9  1  0
 22 13  1  0
 23 24  1  0
 24 21  2  0
 25 27  1  0
 26 18  1  0
 27 26  1  0
 28 25  1  0
 29 22  1  0
 30 22  1  0
  5  2  2  0
 23 11  2  0
M  CHG  2   8   1  14  -1
M  END
> <chembl_id>
CHEMBL1428

> <chembl_pref_name>
NIMODIPINE

$$$$

     RDKit          2D

 14 15  0  0  0  0  0  0  0  0999 V2000
    0.7042    0.1750    0.0000 N   0  0  0  0  0  0  0  0  0  0  0  0
    1.4167   -1.0542    0.0000 C   0  0  0  0  0  0  0  0  0  0  0  0
    1.4167    1.4125    0.0000 C   0  0  0  0  0  0  0  0  0  0  0  0
    2.8542   -1.0542    0.0000 C   0  0  0  0  0  0  0  0  0  0  0  0
    2.8542    1.4125    0.0000 C   0  0  0  0  0  0  0  0  0  0  0  0
    3.5792    0.1750    0.0000 C   0  0  0  0  0  0  0  0  0  0  0  0
   -0.7083    0.1750    0.0000 C   0  0  0  0  0  0  0  0  0  0  0  0
    0.7042   -2.3000    0.0000 O   0  0  0  0  0  0  0  0  0  0  0  0
    3.5625    2.6583    0.0000 C   0  0  0  0  0  0  0  0  0  0  0  0
   -1.4250    1.4125    0.0000 C   0  0  0  0  0  0  0  0  0  0  0  0
   -1.4250   -1.0542    0.0000 C   0  0  0  0  0  0  0  0  0  0  0  0
   -2.8625   -1.0542    0.0000 C   0  0  0  0  0  0  0  0  0  0  0  0
   -2.8625    1.4125    0.0000 C   0  0  0  0  0  0  0  0  0  0  0  0
   -3.5875    0.1750    0.0000 C   0  0  0  0  0  0  0  0  0  0  0  0
  2  1  1  0
  3  1  1  0
  4  2  1  0
  5  3  2  0
  6  5  1  0
  7  1  1  0
  8  2  2  0
  9  5  1  0
 10  7  2  0
 11  7  1  0
 12 11  2  0
 13 10  1  0
 14 12  1  0
  4  6  2  0
 13 14  2  0
M  END
> <chembl_id>
CHEMBL1256391

> <chembl_pref_name>
PIRFENIDONE

$$$$

     RDKit          2D

 35 37  0  0  0  0  0  0  0  0999 V2000
    3.8167   -3.9417    0.0000 C   0  0  0  0  0  0  0  0  0  0  0  0
    2.5875   -3.9542    0.0000 C   0  0  0  0  0  0  0  0  0  0  0  0
    3.2042   -4.3042    0.0000 C   0  0  0  0  0  0  0  0  0  0  0  0
    3.8167   -3.2292    0.0000 C   0  0  0  0  0  0  0  0  0  0  0  0
    2.5875   -3.2292    0.0000 C   0  0  0  0  0  0  0  0  0  0  0  0
    3.2042   -2.8667    0.0000 N   0  0  0  0  0  0  0  0  0  0  0  0
    4.4667   -6.4417    0.0000 N   0  0  0  0  0  0  0  0  0  0  0  0
    3.2042   -5.0125    0.0000 C   0  0  0  0  0  0  0  0  0  0  0  0
    4.4667   -4.3042    0.0000 C   0  0  0  0  0  0  0  0  0  0  0  0
    1.9792   -4.3167    0.0000 C   0  0  0  0  0  0  0  0  0  0  0  0
    3.8042   -6.0750    0.0000 C   0  0  0  0  0  0  0  0  0  0  0  0
    3.8167   -5.3542    0.0000 C   0  0  0  0  0  0  0  0  0  0  0  0
    4.4542   -7.1667    0.0000 O   0  0  0  0  0  0  0  0  0  0  0  0
    4.9542   -6.1667    0.0000 O   0  0  0  0  0  0  0  0  0  0  0  0
    1.9667   -5.0292    0.0000 O   0  0  0  0  0  0  0  0  0  0  0  0
    4.4542   -5.0125    0.0000 O   0  0  0  0  0  0  0  0  0  0  0  0
    6.9250   -4.2375    0.0000 N   0  0  0  0  0  0  0  0  0  0  0  0
    5.0542   -3.9292    0.0000 O   0  0  0  0  0  0  0  0  0  0  0  0
    7.5417   -3.8542    0.0000 C   0  0  0  0  0  0  0  0  0  0  0  0
    1.3625   -3.9667    0.0000 O   0  0  0  0  0  0  0  0  0  0  0  0
    1.9500   -2.8542    0.0000 C   0  0  0  0  0  0  0  0  0  0  0  0
    4.4375   -2.8542    0.0000 C   0  0  0  0  0  0  0  0  0  0  0  0
    2.5875   -5.3625    0.0000 C   0  0  0  0  0  0  0  0  0  0  0  0
    8.1625   -4.1875    0.0000 C   0  0  0  0  0  0  0  0  0  0  0  0
    5.6917   -4.2667    0.0000 C   0  0  0  0  0  0  0  0  0  0  0  0
    3.2042   -6.4375    0.0000 C   0  0  0  0  0  0  0  0  0  0  0  0
    2.5875   -6.0750    0.0000 C   0  0  0  0  0  0  0  0  0  0  0  0
    6.3042   -3.9000    0.0000 C   0  0  0  0  0  0  0  0  0  0  0  0
    6.9250   -4.9375    0.0000 C   0  0  0  0  0  0  0  0  0  0  0  0
    0.7542   -4.3042    0.0000 C   0  0  0  0  0  0  0  0  0  0  0  0
    8.1750   -4.9042    0.0000 C   0  0  0  0  0  0  0  0  0  0  0  0
    8.7667   -3.8250    0.0000 C   0  0  0  0  0  0  0  0  0  0  0  0
    8.7792   -5.2542    0.0000 C   0  0  0  0  0  0  0  0  0  0  0  0
    9.3792   -4.1625    0.0000 C   0  0  0  0  0  0  0  0  0  0  0  0
    9.3917   -4.8667    0.0000 C   0  0  0  0  0  0  0  0  0  0  0  0
  2  3  1  0
  3  1  1  0
  4  1  2  0
  5  6  1  0
  6  4  1  0
  7 11  1  0
  8  3  1  0
  9  1  1  0
 10  2  1  0
 11 12  1  0
 12  8  2  0
 13  7  1  0
 14  7  2  0
 15 10  2  0
 16  9  2  0
 17 28  1  0
 18  9  1  0
 19 17  1  0
 20 10  1  0
 21  5  1  0
 22  4  1  0
 23  8  1  0
 24 19  1  0
 25 18  1  0
 26 27  1  0
 27 23  2  0
 28 25  1  0
 29 17  1  0
 30 20  1  0
 31 24  1  0
 32 24  2  0
 33 31  2  0
 34 32  1  0
 35 33  1  0
  5  2  2  0
 26 11  2  0
 35 34  2  0
M  CHG  2   7   1  13  -1
M  END
> <chembl_id>
CHEMBL1484

> <chembl_pref_name>
NICARDIPINE

$$$$

     RDKit          2D

 25 28  0  0  0  0  0  0  0  0999 V2000
    4.8745   -5.4421    0.0000 C   0  0  0  0  0  0  0  0  0  0  0  0
    4.6195   -4.6575    0.0000 C   0  0  0  0  0  0  0  0  0  0  0  0
    3.8126   -4.4860    0.0000 N   0  0  0  0  0  0  0  0  0  0  0  0
    4.3225   -6.0552    0.0000 N   0  0  0  0  0  0  0  0  0  0  0  0
    3.5155   -5.8837    0.0000 C   0  0  0  0  0  0  0  0  0  0  0  0
    3.2605   -5.0991    0.0000 C   0  0  0  0  0  0  0  0  0  0  0  0
    3.3159   -6.6842    0.0000 C   0  0  0  0  0  0  0  0  0  0  0  0
    2.7402   -6.1659    0.0000 C   0  0  0  0  0  0  0  0  0  0  0  0
    3.5576   -3.7014    0.0000 C   0  0  0  0  0  0  0  0  0  0  0  0
    2.7730   -3.4464    0.0000 C   0  0  0  0  0  0  0  0  0  0  0  0
    2.0585   -3.8589    0.0000 C   0  0  0  0  0  0  0  0  0  0  0  0
    1.3441   -3.4464    0.0000 C   0  0  0  0  0  0  0  0  0  0  0  0
    0.6296   -3.8589    0.0000 Cl  0  0  0  0  0  0  0  0  0  0  0  0
    1.3441   -2.6214    0.0000 C   0  0  0  0  0  0  0  0  0  0  0  0
    2.0585   -2.2089    0.0000 C   0  0  0  0  0  0  0  0  0  0  0  0
    2.7730   -2.6214    0.0000 C   0  0  0  0  0  0  0  0  0  0  0  0
    3.5576   -2.3665    0.0000 C   0  0  0  0  0  0  0  0  0  0  0  0
    4.0426   -3.0339    0.0000 C   0  0  0  0  0  0  0  0  0  0  0  0
    4.8745   -0.6257    0.0000 C   0  0  0  0  0  0  0  0  0  0  0  0
    4.3225   -0.0126    0.0000 C   0  0  0  0  0  0  0  0  0  0  0  0
    3.2605   -0.9688    0.0000 C   0  0  0  0  0  0  0  0  0  0  0  0
    3.5155   -0.1841    0.0000 C   0  0  0  0  0  0  0  0  0  0  0  0
    4.6195   -1.4103    0.0000 C   0  0  0  0  0  0  0  0  0  0  0  0
    3.8126   -1.5819    0.0000 C   0  0  0  0  0  0  0  0  0  0  0  0
    4.5774   -6.8398    0.0000 C   0  0  0  0  0  0  0  0  0  0  0  0
  1  2  1  0
  2  3  1  0
  4  1  1  0
  4  5  1  0
  4 25  1  0
  5  6  1  0
  6  3  1  0
  7  5  1  0
  8  5  1  0
  9  3  1  1
  9 10  1  0
 10 16  2  0
 11 10  1  0
 12 11  2  0
 12 14  1  0
 13 12  1  0
 14 15  2  0
 16 17  1  0
 16 15  1  0
 17 18  1  0
 17 24  1  6
 18  9  1  0
 19 20  1  0
 20 22  2  0
 21 22  1  0
 23 19  2  0
 23 24  1  0
 24 21  2  0
M  END
> <chembl_id>
CHEMBL3039528

> <chembl_pref_name>
ZICRONAPINE

$$$$

     RDKit          2D

 45 49  0  0  0  0  0  0  0  0999 V2000
    1.7060   -3.0542    0.0000 C   0  0  0  0  0  0  0  0  0  0  0  0
    2.3230   -3.3954    0.0000 C   0  0  0  0  0  0  0  0  0  0  0  0
    1.0953   -3.3954    0.0000 C   0  0  0  0  0  0  0  0  0  0  0  0
    1.7060   -2.3352    0.0000 C   0  0  0  0  0  0  0  0  0  0  0  0
    2.3230   -4.1047    0.0000 C   0  0  0  0  0  0  0  0  0  0  0  0
    2.9199   -3.0307    0.0000 C   0  0  0  0  0  0  0  0  0  0  0  0
    1.0953   -4.1047    0.0000 C   0  0  0  0  0  0  0  0  0  0  0  0
    0.4948   -3.0307    0.0000 C   0  0  0  0  0  0  0  0  0  0  0  0
    2.3230   -1.9595    0.0000 C   0  0  0  0  0  0  0  0  0  0  0  0
    1.0953   -1.9595    0.0000 C   0  0  0  0  0  0  0  0  0  0  0  0
    1.7060   -4.4866    0.0000 N   0  0  0  0  0  0  0  0  0  0  0  0
    2.9372   -4.4391    0.0000 C   0  0  0  0  0  0  0  0  0  0  0  0
    3.5508   -3.3651    0.0000 O   0  0  0  0  0  0  0  0  0  0  0  0
    2.9199   -2.3283    0.0000 O   0  0  0  0  0  0  0  0  0  0  0  0
    0.4887   -4.4391    0.0000 C   0  0  0  0  0  0  0  0  0  0  0  0
   -0.1221   -3.3582    0.0000 O   0  0  0  0  0  0  0  0  0  0  0  0
    0.4948   -2.3283    0.0000 O   0  0  0  0  0  0  0  0  0  0  0  0
    2.3230   -1.2501    0.0000 C   0  0  0  0  0  0  0  0  0  0  0  0
    1.0953   -1.2501    0.0000 C   0  0  0  0  0  0  0  0  0  0  0  0
    4.1642   -3.0066    0.0000 C   0  0  0  0  0  0  0  0  0  0  0  0
   -0.7225   -2.9832    0.0000 C   0  0  0  0  0  0  0  0  0  0  0  0
    1.7060   -0.9165    0.0000 C   0  0  0  0  0  0  0  0  0  0  0  0
    4.7819   -3.3582    0.0000 C   0  0  0  0  0  0  0  0  0  0  0  0
    5.3885   -2.9997    0.0000 N   0  0  0  0  0  0  0  0  0  0  0  0
    5.3885   -2.2870    0.0000 C   0  0  0  0  0  0  0  0  0  0  0  0
    6.0096   -3.3582    0.0000 C   0  0  0  0  0  0  0  0  0  0  0  0
    6.0096   -1.9258    0.0000 C   0  0  0  0  0  0  0  0  0  0  0  0
    6.6128   -2.9997    0.0000 C   0  0  0  0  0  0  0  0  0  0  0  0
    6.6128   -2.2870    0.0000 N   0  0  0  0  0  0  0  0  0  0  0  0
    7.2477   -1.9051    0.0000 C   0  0  0  0  0  0  0  0  0  0  0  0
    7.8957   -2.3352    0.0000 C   0  0  0  0  0  0  0  0  0  0  0  0
    7.2477   -1.1792    0.0000 C   0  0  0  0  0  0  0  0  0  0  0  0
    7.8957   -3.0514    0.0000 C   0  0  0  0  0  0  0  0  0  0  0  0
    8.5023   -1.9595    0.0000 C   0  0  0  0  0  0  0  0  0  0  0  0
    6.6404   -0.8000    0.0000 C   0  0  0  0  0  0  0  0  0  0  0  0
    7.8543   -0.8000    0.0000 C   0  0  0  0  0  0  0  0  0  0  0  0
    8.5023   -3.3954    0.0000 C   0  0  0  0  0  0  0  0  0  0  0  0
    9.1130   -2.3352    0.0000 C   0  0  0  0  0  0  0  0  0  0  0  0
    6.6404   -0.0810    0.0000 C   0  0  0  0  0  0  0  0  0  0  0  0
    7.8543   -0.0810    0.0000 C   0  0  0  0  0  0  0  0  0  0  0  0
    9.1130   -3.0514    0.0000 C   0  0  0  0  0  0  0  0  0  0  0  0
    7.2477    0.2533    0.0000 C   0  0  0  0  0  0  0  0  0  0  0  0
    2.9199   -0.8820    0.0000 N   0  0  0  0  0  0  0  0  0  0  0  0
    2.9199   -0.1831    0.0000 O   0  0  0  0  0  0  0  0  0  0  0  0
    3.5818   -1.1792    0.0000 O   0  0  0  0  0  0  0  0  0  0  0  0
  2  6  1  0
  3  7  2  0
  3  8  1  0
  4  9  1  0
  4 10  2  0
  5 11  1  0
  5 12  1  0
  6 13  1  0
  6 14  2  0
  7 15  1  0
  8 16  1  0
  8 17  2  0
  9 18  2  0
 10 19  1  0
 13 20  1  0
 16 21  1  0
 18 22  1  0
 18 43  1  0
 20 23  1  0
 23 24  1  0
 24 25  1  0
 24 26  1  0
 25 27  1  0
 26 28  1  0
 27 29  1  0
 29 30  1  0
 30 31  1  0
 30 32  1  0
 31 33  1  0
 31 34  2  0
 32 35  2  0
 32 36  1  0
 33 37  2  0
 34 38  1  0
 35 39  1  0
 36 40  2  0
 37 41  1  0
 39 42  2  0
  7 11  1  0
 19 22  2  0
 28 29  1  0
 38 41  2  0
 40 42  1  0
  1  2  1  0
  1  3  1  0
  1  4  1  0
  2  5  2  0
 43 44  2  0
 43 45  1  0
M  CHG  2  43   1  45  -1
M  END
> <chembl_id>
CHEMBL1085699

> <chembl_pref_name>
MANIDIPINE 6300

$$$$

     RDKit          2D

 29 31  0  0  0  0  0  0  0  0999 V2000
    0.9056   -2.6613    0.0000 O   0  0  0  0  0  0  0  0  0  0  0  0
    1.7306   -2.6613    0.0000 C   0  0  0  0  0  0  0  0  0  0  0  0
    2.1431   -1.9468    0.0000 C   0  0  0  0  0  0  0  0  0  0  0  0
    1.7306   -1.2324    0.0000 O   0  0  0  0  0  0  0  0  0  0  0  0
    4.2056   -2.6613    0.0000 C   0  0  0  0  0  0  0  0  0  0  0  0
    5.8556   -1.2324    0.0000 O   0  0  0  0  0  0  0  0  0  0  0  0
    5.4431   -1.9468    0.0000 C   0  0  0  0  0  0  0  0  0  0  0  0
    5.8556   -2.6613    0.0000 C   0  0  0  0  0  0  0  0  0  0  0  0
    5.4431   -3.3758    0.0000 C   0  0  0  0  0  0  0  0  0  0  0  0
    4.6181   -3.3758    0.0000 N   0  0  0  0  0  0  0  0  0  0  0  0
    4.6181   -1.9468    0.0000 C   0  0  0  0  0  0  0  0  0  0  0  0
    3.3806   -2.6613    0.0000 C   0  0  0  0  0  0  0  0  0  0  0  0
    2.9681   -3.3758    0.0000 C   0  0  0  0  0  0  0  0  0  0  0  0
    4.2056   -4.0902    0.0000 C   0  0  0  0  0  0  0  0  0  0  0  0
    3.3806   -4.0902    0.0000 C   0  0  0  0  0  0  0  0  0  0  0  0
    2.1431   -3.3758    0.0000 C   0  0  0  0  0  0  0  0  0  0  0  0
    2.9681   -1.9468    0.0000 C   0  0  0  0  0  0  0  0  0  0  0  0
    6.6806   -2.6613    0.0000 C   0  0  0  0  0  0  0  0  0  0  0  0
    7.0931   -1.9468    0.0000 C   0  0  0  0  0  0  0  0  0  0  0  0
    7.9181   -1.9468    0.0000 C   0  0  0  0  0  0  0  0  0  0  0  0
    6.6806   -1.2324    0.0000 C   0  0  0  0  0  0  0  0  0  0  0  0
    2.1431   -0.5179    0.0000 C   0  0  0  0  0  0  0  0  0  0  0  0
    0.4931   -3.3758    0.0000 C   0  0  0  0  0  0  0  0  0  0  0  0
    2.8576   -0.9304    0.0000 H   0  0  0  0  0  0  0  0  0  0  0  0
    2.5556    0.1966    0.0000 H   0  0  0  0  0  0  0  0  0  0  0  0
    1.4287   -0.1054    0.0000 H   0  0  0  0  0  0  0  0  0  0  0  0
   -0.2213   -2.9633    0.0000 H   0  0  0  0  0  0  0  0  0  0  0  0
    0.0806   -4.0902    0.0000 H   0  0  0  0  0  0  0  0  0  0  0  0
    1.2076   -3.7883    0.0000 H   0  0  0  0  0  0  0  0  0  0  0  0
  1  2  1  0
  2 16  2  0
  3  2  1  0
  3 17  2  0
  4  3  1  0
  6  7  2  0
  8  7  1  0
  7 11  1  0
  8  9  1  0
  9 10  1  0
  5 10  1  0
 10 14  1  0
  5 11  1  0
  5 12  1  0
 13 12  2  0
 14 15  1  0
 15 13  1  0
 16 13  1  0
 17 12  1  0
 18 19  1  0
 19 21  1  0
 20 19  1  0
  8 18  1  0
  4 22  1  0
  1 23  1  0
 22 24  1  0
 22 25  1  0
 22 26  1  0
 23 27  1  0
 23 28  1  0
 23 29  1  0
M  ISO  6  24   2  25   2  26   2  27   2  28   2  29   2
M  END
> <chembl_id>
CHEMBL3137326

> <chembl_pref_name>
DEUTETRABENAZINE

$$$$

     RDKit          2D

 27 29  0  0  0  0  0  0  0  0999 V2000
    4.7875   -5.7792    0.0000 C   0  0  0  0  0  0  0  0  0  0  0  0
    5.9792   -5.7792    0.0000 C   0  0  0  0  0  0  0  0  0  0  0  0
    5.3792   -5.4292    0.0000 C   0  0  0  0  0  0  0  0  0  0  0  0
    5.3792   -4.2167    0.0000 C   0  0  0  0  0  0  0  0  0  0  0  0
    4.7875   -3.8792    0.0000 C   0  0  0  0  0  0  0  0  0  0  0  0
    4.7875   -6.4792    0.0000 C   0  0  0  0  0  0  0  0  0  0  0  0
    5.9792   -6.4792    0.0000 C   0  0  0  0  0  0  0  0  0  0  0  0
    4.1875   -5.4292    0.0000 C   0  0  0  0  0  0  0  0  0  0  0  0
    5.3792   -6.8167    0.0000 N   0  0  0  0  0  0  0  0  0  0  0  0
    4.7875   -3.1875    0.0000 C   0  0  0  0  0  0  0  0  0  0  0  0
    4.1125   -4.1042    0.0000 N   0  0  0  0  0  0  0  0  0  0  0  0
    3.7292   -3.5292    0.0000 O   0  0  0  0  0  0  0  0  0  0  0  0
    4.1125   -2.9750    0.0000 N   0  0  0  0  0  0  0  0  0  0  0  0
    6.5750   -5.4417    0.0000 C   0  0  0  0  0  0  0  0  0  0  0  0
    3.5792   -5.7750    0.0000 O   0  0  0  0  0  0  0  0  0  0  0  0
    5.9875   -3.8792    0.0000 C   0  0  0  0  0  0  0  0  0  0  0  0
    4.1875   -4.7417    0.0000 O   0  0  0  0  0  0  0  0  0  0  0  0
    5.9875   -3.1875    0.0000 C   0  0  0  0  0  0  0  0  0  0  0  0
    5.3792   -2.8292    0.0000 C   0  0  0  0  0  0  0  0  0  0  0  0
    6.5750   -4.7542    0.0000 O   0  0  0  0  0  0  0  0  0  0  0  0
    7.1667   -5.7792    0.0000 O   0  0  0  0  0  0  0  0  0  0  0  0
    6.5750   -6.8625    0.0000 C   0  0  0  0  0  0  0  0  0  0  0  0
    4.1875   -6.8167    0.0000 C   0  0  0  0  0  0  0  0  0  0  0  0
    2.9792   -5.4292    0.0000 C   0  0  0  0  0  0  0  0  0  0  0  0
    7.7542   -5.4417    0.0000 C   0  0  0  0  0  0  0  0  0  0  0  0
    2.3792   -5.7792    0.0000 C   0  0  0  0  0  0  0  0  0  0  0  0
    2.9792   -4.7625    0.0000 C   0  0  0  0  0  0  0  0  0  0  0  0
  2  3  1  0
  3  1  1  0
  4  3  1  0
  5  4  1  0
  6  1  2  0
  7  9  1  0
  8  1  1  0
  9  6  1  0
 10  5  1  0
 11  5  2  0
 12 11  1  0
 13 10  2  0
 14  2  1  0
 15  8  1  0
 16  4  2  0
 17  8  2  0
 18 16  1  0
 19 18  2  0
 20 14  2  0
 21 14  1  0
 22  7  1  0
 23  6  1  0
 24 15  1  0
 25 21  1  0
 26 24  1  0
 27 24  1  0
  7  2  2  0
 19 10  1  0
 12 13  1  0
M  END
> <chembl_id>
CHEMBL1648

> <chembl_pref_name>
ISRADIPINE

$$$$

     RDKit          2D

 27 30  0  0  0  0  0  0  0  0999 V2000
   -1.1583   -1.8917    0.0000 C   0  0  0  0  0  0  0  0  0  0  0  0
   -1.9333   -1.8917    0.0000 N   0  0  0  0  0  0  0  0  0  0  0  0
   -0.7625   -2.4500    0.0000 C   0  0  0  0  0  0  0  0  0  0  0  0
   -1.5458   -3.4667    0.0000 S   0  0  0  0  0  0  0  0  0  0  0  0
   -0.5375   -1.5542    0.0000 N   0  0  0  0  0  0  0  0  0  0  0  0
   -0.9708   -3.1750    0.0000 C   0  0  0  0  0  0  0  0  0  0  0  0
   -2.3625   -2.4875    0.0000 C   0  0  0  0  0  0  0  0  0  0  0  0
   -2.1625   -3.1750    0.0000 C   0  0  0  0  0  0  0  0  0  0  0  0
    0.7042   -0.8417    0.0000 N   0  0  0  0  0  0  0  0  0  0  0  0
    0.0792   -1.9167    0.0000 C   0  0  0  0  0  0  0  0  0  0  0  0
   -0.5375   -0.8667    0.0000 C   0  0  0  0  0  0  0  0  0  0  0  0
    0.7042   -1.5542    0.0000 C   0  0  0  0  0  0  0  0  0  0  0  0
    0.0792   -0.4917    0.0000 C   0  0  0  0  0  0  0  0  0  0  0  0
   -0.0708   -2.2792    0.0000 C   0  0  0  0  0  0  0  0  0  0  0  0
   -0.4458   -3.6625    0.0000 C   0  0  0  0  0  0  0  0  0  0  0  0
    1.3000   -0.4917    0.0000 C   0  0  0  0  0  0  0  0  0  0  0  0
    4.3667   -0.8542    0.0000 O   0  0  0  0  0  0  0  0  0  0  0  0
   -3.0458   -2.3000    0.0000 C   0  0  0  0  0  0  0  0  0  0  0  0
   -2.6833   -3.6667    0.0000 C   0  0  0  0  0  0  0  0  0  0  0  0
    2.5083   -0.5042    0.0000 O   0  0  0  0  0  0  0  0  0  0  0  0
    3.7542   -0.5042    0.0000 C   0  0  0  0  0  0  0  0  0  0  0  0
    1.9292   -0.8292    0.0000 C   0  0  0  0  0  0  0  0  0  0  0  0
    3.1417   -0.8417    0.0000 C   0  0  0  0  0  0  0  0  0  0  0  0
    0.4250   -2.7917    0.0000 C   0  0  0  0  0  0  0  0  0  0  0  0
    0.2292   -3.4917    0.0000 C   0  0  0  0  0  0  0  0  0  0  0  0
   -3.3750   -3.4917    0.0000 C   0  0  0  0  0  0  0  0  0  0  0  0
   -3.5625   -2.8167    0.0000 C   0  0  0  0  0  0  0  0  0  0  0  0
  2  1  2  0
  3  1  1  0
  4  6  1  0
  5  1  1  0
  6  3  1  0
  7  2  1  0
  8  7  1  0
  9 13  1  0
 10  5  1  0
 11  5  1  0
 12 10  1  0
 13 11  1  0
 14  3  2  0
 15  6  2  0
 16  9  1  0
 17 21  1  0
 18  7  2  0
 19  8  2  0
 20 22  1  0
 21 23  1  0
 22 16  1  0
 23 20  1  0
 24 14  1  0
 25 15  1  0
 26 27  2  0
 27 18  1  0
  9 12  1  0
  8  4  1  0
 24 25  2  0
 26 19  1  0
M  END
> <chembl_id>
CHEMBL716

> <chembl_pref_name>
QUETIAPINE

$$$$

     RDKit          2D

 28 29  0  0  0  0  0  0  0  0999 V2000
    2.9958   -7.0917    0.0000 C   0  0  0  0  0  0  0  0  0  0  0  0
    1.7750   -7.0917    0.0000 C   0  0  0  0  0  0  0  0  0  0  0  0
    2.3833   -6.7375    0.0000 C   0  0  0  0  0  0  0  0  0  0  0  0
    1.7750   -7.8000    0.0000 C   0  0  0  0  0  0  0  0  0  0  0  0
    2.9958   -7.8000    0.0000 C   0  0  0  0  0  0  0  0  0  0  0  0
    2.3833   -8.1542    0.0000 N   0  0  0  0  0  0  0  0  0  0  0  0
    3.6125   -6.7375    0.0000 C   0  0  0  0  0  0  0  0  0  0  0  0
    1.1583   -6.7375    0.0000 C   0  0  0  0  0  0  0  0  0  0  0  0
    2.3833   -5.3208    0.0000 C   0  0  0  0  0  0  0  0  0  0  0  0
    3.0000   -4.9667    0.0000 C   0  0  0  0  0  0  0  0  0  0  0  0
    3.6125   -6.0292    0.0000 O   0  0  0  0  0  0  0  0  0  0  0  0
    1.1583   -6.0292    0.0000 O   0  0  0  0  0  0  0  0  0  0  0  0
    1.1583   -8.1500    0.0000 C   0  0  0  0  0  0  0  0  0  0  0  0
    4.2250   -7.0917    0.0000 O   0  0  0  0  0  0  0  0  0  0  0  0
    0.5458   -7.0917    0.0000 O   0  0  0  0  0  0  0  0  0  0  0  0
    3.6125   -8.1500    0.0000 C   0  0  0  0  0  0  0  0  0  0  0  0
    3.6125   -5.3208    0.0000 Cl  0  0  0  0  0  0  0  0  0  0  0  0
   -1.2958   -8.1500    0.0000 N   0  0  0  0  0  0  0  0  0  0  0  0
    1.7750   -4.9667    0.0000 C   0  0  0  0  0  0  0  0  0  0  0  0
    0.5458   -7.7958    0.0000 O   0  0  0  0  0  0  0  0  0  0  0  0
    3.0000   -4.2583    0.0000 C   0  0  0  0  0  0  0  0  0  0  0  0
   -0.6792   -7.7958    0.0000 C   0  0  0  0  0  0  0  0  0  0  0  0
   -0.0667   -6.7375    0.0000 C   0  0  0  0  0  0  0  0  0  0  0  0
   -0.0667   -8.1500    0.0000 C   0  0  0  0  0  0  0  0  0  0  0  0
    4.8375   -6.7375    0.0000 C   0  0  0  0  0  0  0  0  0  0  0  0
    1.7708   -4.2625    0.0000 C   0  0  0  0  0  0  0  0  0  0  0  0
   -0.6792   -7.0917    0.0000 C   0  0  0  0  0  0  0  0  0  0  0  0
    2.3875   -3.9042    0.0000 C   0  0  0  0  0  0  0  0  0  0  0  0
  2  3  1  0
  3  1  1  0
  4  2  2  0
  5  1  2  0
  6  5  1  0
  7  1  1  0
  8  2  1  0
  9  3  1  0
 10  9  2  0
 11  7  2  0
 12  8  2  0
 13  4  1  0
 14  7  1  0
 15  8  1  0
 16  5  1  0
 17 10  1  0
 18 22  1  0
 19  9  1  0
 20 13  1  0
 21 10  1  0
 22 24  1  0
 23 15  1  0
 24 20  1  0
 25 14  1  0
 26 19  2  0
 27 23  1  0
 28 21  2  0
  6  4  1  0
 26 28  1  0
M  END
> <chembl_id>
CHEMBL1491

> <chembl_pref_name>
AMLODIPINE

$$$$

     RDKit          2D

  6  5  0  0  0  0  0  0  0  0999 V2000
    5.0750   -4.6500    0.0000 C   0  0  0  0  0  0  0  0  0  0  0  0
    5.0750   -5.3542    0.0000 O   0  0  0  0  0  0  0  0  0  0  0  0
    3.8417   -4.6500    0.0000 O   0  0  0  0  0  0  0  0  0  0  0  0
    6.3042   -4.6500    0.0000 O   0  0  0  0  0  0  0  0  0  0  0  0
    5.6875   -4.2917    0.0000 C   0  0  0  0  0  0  0  0  0  0  0  0
    4.4625   -4.2917    0.0000 C   0  0  0  0  0  0  0  0  0  0  0  0
  2  1  1  0
  3  6  1  0
  4  5  1  0
  5  1  1  0
  6  1  1  0
M  END
> <chembl_id>
CHEMBL692

> <chembl_pref_name>
GLYCERIN

$$$$

     RDKit          2D

 28 29  0  0  0  0  0  0  0  0999 V2000
   -0.3625    0.8000    0.0000 C   0  0  0  0  0  0  0  0  0  0  0  0
    0.4542   -0.5875    0.0000 C   0  0  0  0  0  0  0  0  0  0  0  0
   -0.3625   -0.1292    0.0000 C   0  0  0  0  0  0  0  0  0  0  0  0
    1.2792   -0.1292    0.0000 C   0  0  0  0  0  0  0  0  0  0  0  0
    0.4542    1.2458    0.0000 C   0  0  0  0  0  0  0  0  0  0  0  0
   -1.1625    1.2625    0.0000 C   0  0  0  0  0  0  0  0  0  0  0  0
    1.2667    0.8000    0.0000 N   0  0  0  0  0  0  0  0  0  0  0  0
   -2.0083   -2.9167    0.0000 N   0  0  0  0  0  0  0  0  0  0  0  0
   -1.1833   -0.5625    0.0000 C   0  0  0  0  0  0  0  0  0  0  0  0
    0.4417   -1.5250    0.0000 C   0  0  0  0  0  0  0  0  0  0  0  0
    2.0792   -0.5542    0.0000 C   0  0  0  0  0  0  0  0  0  0  0  0
   -2.0000   -1.9375    0.0000 C   0  0  0  0  0  0  0  0  0  0  0  0
    2.9000   -0.9917    0.0000 N   0  0  0  0  0  0  0  0  0  0  0  0
   -1.1833   -1.4792    0.0000 C   0  0  0  0  0  0  0  0  0  0  0  0
   -1.1875    2.2083    0.0000 O   0  0  0  0  0  0  0  0  0  0  0  0
   -1.1958   -3.3542    0.0000 O   0  0  0  0  0  0  0  0  0  0  0  0
   -2.8250   -3.3542    0.0000 O   0  0  0  0  0  0  0  0  0  0  0  0
   -1.9708    0.7958    0.0000 O   0  0  0  0  0  0  0  0  0  0  0  0
    1.2542   -1.9667    0.0000 O   0  0  0  0  0  0  0  0  0  0  0  0
   -0.3375   -1.9917    0.0000 O   0  0  0  0  0  0  0  0  0  0  0  0
    0.4417    2.2208    0.0000 C   0  0  0  0  0  0  0  0  0  0  0  0
   -1.9958   -0.0917    0.0000 C   0  0  0  0  0  0  0  0  0  0  0  0
   -2.0083    2.6583    0.0000 C   0  0  0  0  0  0  0  0  0  0  0  0
   -2.8250   -1.5167    0.0000 C   0  0  0  0  0  0  0  0  0  0  0  0
   -2.8208   -0.5417    0.0000 C   0  0  0  0  0  0  0  0  0  0  0  0
   -0.3333   -2.9375    0.0000 C   0  0  0  0  0  0  0  0  0  0  0  0
   -2.8083    2.1833    0.0000 C   0  0  0  0  0  0  0  0  0  0  0  0
   -2.0625    3.5958    0.0000 C   0  0  0  0  0  0  0  0  0  0  0  0
  2  3  1  0
  3  1  1  0
  4  7  1  0
  5  1  2  0
  6  1  1  0
  7  5  1  0
  8 12  1  0
  9  3  1  0
 10  2  1  0
 11  4  1  0
 12 14  2  0
 13 11  3  0
 14  9  1  0
 15  6  1  0
 16  8  1  0
 17  8  2  0
 18  6  2  0
 19 10  2  0
 20 10  1  0
 21  5  1  0
 22  9  2  0
 23 15  1  0
 24 25  2  0
 25 22  1  0
 26 20  1  0
 27 23  1  0
 28 23  1  0
  2  4  2  0
 12 24  1  0
M  CHG  2   8   1  16  -1
M  END
> <chembl_id>
CHEMBL517427

> <chembl_pref_name>
NILVADIPINE

$$$$

     RDKit          2D

 13 12  0  0  0  0  0  0  0  0999 V2000
    7.2417   -5.5292    0.0000 Na  0  0  0  0  0 15  0  0  0  0  0  0
    5.9542   -5.7667    0.0000 C   0  0  0  0  0  0  0  0  0  0  0  0
    6.5292   -5.3917    0.0000 O   0  0  0  0  0  0  0  0  0  0  0  0
    5.9542   -6.4917    0.0000 O   0  0  0  0  0  0  0  0  0  0  0  0
    3.4917   -5.7792    0.0000 C   0  0  0  0  0  0  0  0  0  0  0  0
    5.3417   -5.4167    0.0000 C   0  0  0  0  0  0  0  0  0  0  0  0
    4.7292   -5.7792    0.0000 C   0  0  0  0  0  0  0  0  0  0  0  0
    4.1125   -5.4292    0.0000 C   0  0  0  0  0  0  0  0  0  0  0  0
    3.4917   -6.4917    0.0000 C   0  0  0  0  0  0  0  0  0  0  0  0
    2.8792   -5.4292    0.0000 C   0  0  0  0  0  0  0  0  0  0  0  0
    2.2667   -5.7792    0.0000 C   0  0  0  0  0  0  0  0  0  0  0  0
    2.8792   -6.8500    0.0000 C   0  0  0  0  0  0  0  0  0  0  0  0
    2.2667   -6.4917    0.0000 C   0  0  0  0  0  0  0  0  0  0  0  0
  3  2  1  0
  4  2  2  0
  5  8  1  0
  6  2  1  0
  7  6  1  0
  8  7  1  0
  9  5  2  0
 10  5  1  0
 11 10  2  0
 12  9  1  0
 13 12  2  0
 13 11  1  0
M  CHG  2   1   1   3  -1
M  END
> <chembl_id>
CHEMBL1746

> <chembl_pref_name>
SODIUM PHENYLBUTYRATE

$$$$

     RDKit          2D

 21 23  0  0  0  0  0  0  0  0999 V2000
    0.1000    0.2583    0.0000 N   0  0  0  0  0  0  0  0  0  0  0  0
    0.5667   -0.3917    0.0000 C   0  0  0  0  0  0  0  0  0  0  0  0
    0.1000   -1.0917    0.0000 O   0  0  0  0  0  0  0  0  0  0  0  0
   -0.6875    0.0083    0.0000 C   0  0  0  0  0  0  0  0  0  0  0  0
   -0.6875   -0.8417    0.0000 C   0  0  0  0  0  0  0  0  0  0  0  0
   -2.1250    0.0083    0.0000 C   0  0  0  0  0  0  0  0  0  0  0  0
   -3.5625    0.0625    0.0000 C   0  0  0  0  0  0  0  0  0  0  0  0
   -1.4083    0.4125    0.0000 C   0  0  0  0  0  0  0  0  0  0  0  0
    1.4542   -0.4042    0.0000 C   0  0  0  0  0  0  0  0  0  0  0  0
   -2.8333    0.4458    0.0000 C   0  0  0  0  0  0  0  0  0  0  0  0
   -2.1250   -0.8417    0.0000 C   0  0  0  0  0  0  0  0  0  0  0  0
   -3.5625   -0.8000    0.0000 O   0  0  0  0  0  0  0  0  0  0  0  0
   -1.4083   -1.2500    0.0000 C   0  0  0  0  0  0  0  0  0  0  0  0
    1.8792   -1.1375    0.0000 C   0  0  0  0  0  0  0  0  0  0  0  0
    1.8792    0.3083    0.0000 C   0  0  0  0  0  0  0  0  0  0  0  0
   -4.1833    0.5583    0.0000 O   0  0  0  0  0  0  0  0  0  0  0  0
    3.1667   -0.4292    0.0000 C   0  0  0  0  0  0  0  0  0  0  0  0
    2.7167    0.3083    0.0000 C   0  0  0  0  0  0  0  0  0  0  0  0
    2.7375   -1.1375    0.0000 C   0  0  0  0  0  0  0  0  0  0  0  0
    4.0000   -0.4292    0.0000 Cl  0  0  0  0  0  0  0  0  0  0  0  0
   -2.8333    1.3000    0.0000 C   0  0  0  0  0  0  0  0  0  0  0  0
  2  1  2  0
  3  2  1  0
  4  1  1  0
  5  4  2  0
  6  8  2  0
  7 10  1  0
  8  4  1  0
  9  2  1  0
 10  6  1  0
 11  6  1  0
 12  7  2  0
 13  5  1  0
 14  9  2  0
 15  9  1  0
 16  7  1  0
 17 18  1  0
 18 15  2  0
 19 14  1  0
 20 17  1  0
 21 10  1  0
  5  3  1  0
 13 11  2  0
 19 17  2  0
M  END
> <chembl_id>
CHEMBL340978

> <chembl_pref_name>
BENOXAPROFEN

$$$$

     RDKit          2D

 20 23  0  0  0  0  0  0  0  0999 V2000
   -8.3859    8.4271    0.0000 C   0  0  0  0  0  0  0  0  0  0  0  0
   -7.5609    8.4271    0.0000 C   0  0  0  0  0  0  0  0  0  0  0  0
   -8.9026    9.0729    0.0000 C   0  0  0  0  0  0  0  0  0  0  0  0
   -7.9734   10.2354    0.0000 O   0  0  0  0  0  0  0  0  0  0  0  0
   -8.7151    9.8771    0.0000 C   0  0  0  0  0  0  0  0  0  0  0  0
   -7.0484    9.0729    0.0000 C   0  0  0  0  0  0  0  0  0  0  0  0
   -7.2359    9.8771    0.0000 C   0  0  0  0  0  0  0  0  0  0  0  0
   -7.9734    7.1604    0.0000 N   0  0  0  0  0  0  0  0  0  0  0  0
   -8.6401    7.6479    0.0000 C   0  0  0  0  0  0  0  0  0  0  0  0
   -7.3109    7.6479    0.0000 C   0  0  0  0  0  0  0  0  0  0  0  0
   -9.7276    8.8729    0.0000 C   0  0  0  0  0  0  0  0  0  0  0  0
   -9.3026   10.4604    0.0000 C   0  0  0  0  0  0  0  0  0  0  0  0
  -10.3109    9.4521    0.0000 C   0  0  0  0  0  0  0  0  0  0  0  0
  -10.0984   10.2479    0.0000 C   0  0  0  0  0  0  0  0  0  0  0  0
  -11.1109    9.2396    0.0000 Cl  0  0  0  0  0  0  0  0  0  0  0  0
   -7.9734    6.3354    0.0000 C   0  0  0  0  0  0  0  0  0  0  0  0
   -6.2609    8.8354    0.0000 C   0  0  0  0  0  0  0  0  0  0  0  0
   -6.6276   10.4396    0.0000 C   0  0  0  0  0  0  0  0  0  0  0  0
   -5.6526    9.3979    0.0000 C   0  0  0  0  0  0  0  0  0  0  0  0
   -5.8359   10.1979    0.0000 C   0  0  0  0  0  0  0  0  0  0  0  0
  2  1  1  0
  1  3  1  0
  4  5  1  0
  5  3  1  0
  2  6  1  0
  7  6  2  0
  8  9  1  0
  1  9  1  0
  2 10  1  0
 11  3  2  0
 12  5  2  0
 13 11  1  0
 14 12  1  0
 15 13  1  0
 16  8  1  0
 17  6  1  0
 18  7  1  0
 19 17  2  0
 20 18  2  0
  8 10  1  0
  7  4  1  0
 14 13  2  0
 19 20  1  0
M  END
> <chembl_id>
CHEMBL3187365

> <chembl_pref_name>
ASENAPINE

$$$$

     RDKit          2D

 22 24  0  0  0  0  0  0  0  0999 V2000
    0.7917    0.4750    0.0000 N   0  0  0  0  0  0  0  0  0  0  0  0
    1.0333   -0.3125    0.0000 C   0  0  0  0  0  0  0  0  0  0  0  0
    0.5667   -0.9958    0.0000 C   0  0  0  0  0  0  0  0  0  0  0  0
    1.3958    1.0375    0.0000 C   0  0  0  0  0  0  0  0  0  0  0  0
   -0.2542   -1.0583    0.0000 C   0  0  0  0  0  0  0  0  0  0  0  0
    0.0208    0.7750    0.0000 C   0  0  0  0  0  0  0  0  0  0  0  0
   -0.6917    0.3625    0.0000 C   0  0  0  0  0  0  0  0  0  0  0  0
   -0.8167   -0.4500    0.0000 C   0  0  0  0  0  0  0  0  0  0  0  0
   -0.8375   -1.6417    0.0000 O   0  0  0  0  0  0  0  0  0  0  0  0
   -1.6333   -1.4250    0.0000 C   0  0  0  0  0  0  0  0  0  0  0  0
    1.2125    1.8417    0.0000 O   0  0  0  0  0  0  0  0  0  0  0  0
   -1.8500   -0.6292    0.0000 O   0  0  0  0  0  0  0  0  0  0  0  0
    2.1833    0.7917    0.0000 N   0  0  0  0  0  0  0  0  0  0  0  0
    1.8542   -0.3750    0.0000 C   0  0  0  0  0  0  0  0  0  0  0  0
    0.9250   -1.7375    0.0000 C   0  0  0  0  0  0  0  0  0  0  0  0
    0.0208    1.6000    0.0000 C   0  0  0  0  0  0  0  0  0  0  0  0
   -1.4083    0.7750    0.0000 C   0  0  0  0  0  0  0  0  0  0  0  0
   -2.2167   -2.0083    0.0000 C   0  0  0  0  0  0  0  0  0  0  0  0
    2.2125   -1.1167    0.0000 C   0  0  0  0  0  0  0  0  0  0  0  0
    1.7500   -1.8000    0.0000 C   0  0  0  0  0  0  0  0  0  0  0  0
   -0.6917    2.0125    0.0000 C   0  0  0  0  0  0  0  0  0  0  0  0
   -1.4083    1.6000    0.0000 C   0  0  0  0  0  0  0  0  0  0  0  0
  2  1  1  0
  3  2  2  0
  4  1  1  0
  5  3  1  0
  6  1  1  0
  7  6  2  0
  8  7  1  0
  5  9  1  1
 10  9  1  0
 11  4  2  0
 12 10  2  0
 13  4  1  0
 14  2  1  0
 15  3  1  0
 16  6  1  0
 17  7  1  0
 18 10  1  0
 19 14  2  0
 20 19  1  0
 21 16  2  0
 22 21  1  0
  5  8  1  0
 17 22  2  0
 20 15  2  0
M  END
> <chembl_id>
CHEMBL87992

> <chembl_pref_name>
ESLICARBAZEPINE ACETATE

$$$$

     RDKit          2D

 17 15  0  0  0  0  0  0  0  0999 V2000
   -2.7419   -5.2332    0.0000 C   0  0  0  0  0  0  0  0  0  0  0  0
   -2.7419   -4.4082    0.0000 C   0  0  0  0  0  0  0  0  0  0  0  0
   -3.4563   -3.9957    0.0000 C   0  0  0  0  0  0  0  0  0  0  0  0
   -4.1708   -4.4082    0.0000 C   0  0  0  0  0  0  0  0  0  0  0  0
   -4.1708   -5.2332    0.0000 C   0  0  0  0  0  0  0  0  0  0  0  0
   -3.4563   -5.6457    0.0000 C   0  0  0  0  0  0  0  0  0  0  0  0
   -1.9573   -5.4881    0.0000 N   0  0  0  0  0  0  0  0  0  0  0  0
   -1.4723   -4.8207    0.0000 C   0  0  0  0  0  0  0  0  0  0  0  0
   -1.9572   -4.1533    0.0000 S   0  0  0  0  0  0  0  0  0  0  0  0
   -0.6473   -4.8207    0.0000 N   0  0  0  0  0  0  0  0  0  0  0  0
   -4.9958   -4.4082    0.0000 N   0  0  0  0  0  0  0  0  0  0  0  0
   -5.4083   -5.1226    0.0000 C   0  0  0  0  0  0  0  0  0  0  0  0
   -6.2333   -5.1226    0.0000 C   0  0  0  0  0  0  0  0  0  0  0  0
   -6.6458   -5.8371    0.0000 C   0  0  0  0  0  0  0  0  0  0  0  0
   -0.6171   -7.0421    0.0000 Cl  0  0  0  0  0  0  0  0  0  0  0  0
   -1.4310   -7.6726    0.0000 Cl  0  0  0  0  0  0  0  0  0  0  0  0
   -0.1717   -5.7847    0.0000 O   0  0  0  0  0  0  0  0  0  0  0  0
  2  3  1  0
  3  4  1  0
  4  5  1  0
  5  6  1  0
  6  1  1  0
  1  7  1  0
  2  1  2  0
  2  9  1  0
  7  8  2  0
  8  9  1  0
  8 10  1  0
  4 11  1  1
 11 12  1  0
 12 13  1  0
 13 14  1  0
M  END
> <chembl_id>
CHEMBL2105687

> <chembl_pref_name>
DEXPRAMIPEXOLE DIHYDROCHLORIDE

$$$$

     RDKit          2D

 32 35  0  0  0  0  0  0  0  0999 V2000
    5.7121  -23.0671    0.0000 N   0  0  0  0  0  0  0  0  0  0  0  0
    4.8949  -23.0795    0.0000 C   0  0  0  0  0  0  0  0  0  0  0  0
    4.9031  -23.8967    0.0000 C   0  0  0  0  0  0  0  0  0  0  0  0
    5.7203  -23.8925    0.0000 C   0  0  0  0  0  0  0  0  0  0  0  0
    9.2409  -22.6296    0.0000 C   0  0  0  0  0  0  0  0  0  0  0  0
    6.4178  -22.6585    0.0000 C   0  0  0  0  0  0  0  0  0  0  0  0
    9.4844  -21.8537    0.0000 N   0  0  0  0  0  0  0  0  0  0  0  0
    9.9095  -23.1001    0.0000 N   0  0  0  0  0  0  0  0  0  0  0  0
   10.5657  -22.6172    0.0000 N   0  0  0  0  0  0  0  0  0  0  0  0
   10.3016  -21.8413    0.0000 N   0  0  0  0  0  0  0  0  0  0  0  0
    4.2015  -24.3135    0.0000 N   0  0  0  0  0  0  0  0  0  0  0  0
    6.4302  -24.2929    0.0000 S   0  0  0  0  0  0  0  0  0  0  0  0
    7.1236  -23.0547    0.0000 C   0  0  0  0  0  0  0  0  0  0  0  0
    3.4834  -23.9173    0.0000 C   0  0  0  0  0  0  0  0  0  0  0  0
    6.4055  -21.8413    0.0000 C   0  0  0  0  0  0  0  0  0  0  0  0
    8.5475  -23.0506    0.0000 S   0  0  0  0  0  0  0  0  0  0  0  0
    7.1360  -23.8719    0.0000 C   0  0  0  0  0  0  0  0  0  0  0  0
    2.7859  -24.3383    0.0000 C   0  0  0  0  0  0  0  0  0  0  0  0
    4.3130  -22.5099    0.0000 O   0  0  0  0  0  0  0  0  0  0  0  0
    7.8294  -22.6461    0.0000 C   0  0  0  0  0  0  0  0  0  0  0  0
    3.4793  -23.1001    0.0000 O   0  0  0  0  0  0  0  0  0  0  0  0
    5.6997  -21.4410    0.0000 O   0  0  0  0  0  0  0  0  0  0  0  0
    2.8024  -25.1472    0.0000 C   0  0  0  0  0  0  0  0  0  0  0  0
    8.9932  -21.1974    0.0000 C   0  0  0  0  0  0  0  0  0  0  0  0
    7.1112  -21.4203    0.0000 O   0  0  0  0  0  0  0  0  0  0  0  0
    2.0719  -23.9421    0.0000 O   0  0  0  0  0  0  0  0  0  0  0  0
    2.0966  -25.5682    0.0000 C   0  0  0  0  0  0  0  0  0  0  0  0
    3.5081  -25.5517    0.0000 C   0  0  0  0  0  0  0  0  0  0  0  0
    3.5288  -26.3689    0.0000 C   0  0  0  0  0  0  0  0  0  0  0  0
    2.1090  -26.3854    0.0000 C   0  0  0  0  0  0  0  0  0  0  0  0
    2.8230  -26.7898    0.0000 C   0  0  0  0  0  0  0  0  0  0  0  0
    5.7245  -24.7015    0.0000 H   0  0  0  0  0  0  0  0  0  0  0  0
  2  1  1  0
  3  4  1  0
  4  1  1  0
  5 16  1  0
  6  1  1  0
  7  5  1  0
  8  5  2  0
  9  8  1  0
 10  7  1  0
  3 11  1  6
 12  4  1  0
 13  6  2  0
 14 11  1  0
 15  6  1  0
 16 20  1  0
 17 13  1  0
 18 14  1  0
 19  2  2  0
 20 13  1  0
 21 14  2  0
 22 15  2  0
 23 18  1  0
 24  7  1  0
 25 15  1  0
 18 26  1  1
 27 23  2  0
 28 23  1  0
 29 28  2  0
 30 27  1  0
 31 29  1  0
  4 32  1  1
  2  3  1  0
 17 12  1  0
  9 10  2  0
 31 30  2  0
M  END
> <chembl_id>
CHEMBL1146

> <chembl_pref_name>
CEFAMANDOLE

$$$$

     RDKit          2D

124132  0  0  0  0  0  0  0  0999 V2000
   -3.5063    1.7679    0.0000 Cl  0  0  0  0  0  0  0  0  0  0  0  0
   -8.0143    3.3000    0.0000 C   0  0  0  0  0  0  0  0  0  0  0  0
   -8.4268    4.0145    0.0000 C   0  0  0  0  0  0  0  0  0  0  0  0
   -9.2518    4.0145    0.0000 C   0  0  0  0  0  0  0  0  0  0  0  0
   -9.6643    3.3000    0.0000 O   0  0  0  0  0  0  0  0  0  0  0  0
   -9.2518    2.5855    0.0000 C   0  0  0  0  0  0  0  0  0  0  0  0
   -8.4268    2.5855    0.0000 C   0  0  0  0  0  0  0  0  0  0  0  0
   -9.6643    1.8711    0.0000 O   0  0  0  0  0  0  0  0  0  0  0  0
   -9.6643    4.7289    0.0000 C   0  0  0  0  0  0  0  0  0  0  0  0
   -8.0143    4.7289    0.0000 O   0  0  0  0  0  0  0  0  0  0  0  0
   -7.6018    4.0145    0.0000 N   0  0  0  0  0  0  0  0  0  0  0  0
   -7.8007    2.5031    0.0000 C   0  0  0  0  0  0  0  0  0  0  0  0
   -6.7768    4.0145    0.0000 C   0  0  0  0  0  0  0  0  0  0  0  0
   -6.3643    4.7289    0.0000 C   0  0  0  0  0  0  0  0  0  0  0  0
   -5.5393    4.7289    0.0000 N   0  0  0  0  0  0  0  0  0  0  0  0
   -5.1268    5.4434    0.0000 C   0  0  0  0  0  0  0  0  0  0  0  0
   -4.3018    5.4434    0.0000 C   0  0  0  0  0  0  0  0  0  0  0  0
   -3.8893    6.1579    0.0000 C   0  0  0  0  0  0  0  0  0  0  0  0
   -3.0643    6.1579    0.0000 C   0  0  0  0  0  0  0  0  0  0  0  0
   -2.6518    6.8724    0.0000 C   0  0  0  0  0  0  0  0  0  0  0  0
   -1.8268    6.8724    0.0000 C   0  0  0  0  0  0  0  0  0  0  0  0
   -1.4143    7.5868    0.0000 C   0  0  0  0  0  0  0  0  0  0  0  0
   -0.5893    7.5868    0.0000 C   0  0  0  0  0  0  0  0  0  0  0  0
   -0.1768    8.3013    0.0000 C   0  0  0  0  0  0  0  0  0  0  0  0
    0.6482    8.3013    0.0000 C   0  0  0  0  0  0  0  0  0  0  0  0
   -6.6000    0.8545    0.0000 C   0  0  0  0  0  0  0  0  0  0  0  0
   -7.0125    1.5689    0.0000 C   0  0  0  0  0  0  0  0  0  0  0  0
   -7.8375    1.5689    0.0000 O   0  0  0  0  0  0  0  0  0  0  0  0
   -8.2500    0.8545    0.0000 C   0  0  0  0  0  0  0  0  0  0  0  0
   -7.8375    0.1400    0.0000 C   0  0  0  0  0  0  0  0  0  0  0  0
   -7.0125    0.1400    0.0000 C   0  0  0  0  0  0  0  0  0  0  0  0
   -9.0161   -0.0589    0.0000 O   0  0  0  0  0  0  0  0  0  0  0  0
   -9.0161   -0.8839    0.0000 C   0  0  0  0  0  0  0  0  0  0  0  0
   -9.7306   -1.2964    0.0000 C   0  0  0  0  0  0  0  0  0  0  0  0
   -9.7306   -2.1214    0.0000 C   0  0  0  0  0  0  0  0  0  0  0  0
   -9.0161   -2.5339    0.0000 C   0  0  0  0  0  0  0  0  0  0  0  0
   -8.3016   -2.1214    0.0000 C   0  0  0  0  0  0  0  0  0  0  0  0
   -8.3016   -1.2964    0.0000 C   0  0  0  0  0  0  0  0  0  0  0  0
   -6.6000    2.2834    0.0000 C   0  0  0  0  0  0  0  0  0  0  0  0
   -7.0125    2.9979    0.0000 O   0  0  0  0  0  0  0  0  0  0  0  0
   -5.7750    0.8545    0.0000 O   0  0  0  0  0  0  0  0  0  0  0  0
   -6.6000   -0.5745    0.0000 O   0  0  0  0  0  0  0  0  0  0  0  0
   -7.5871   -0.8839    0.0000 O   0  0  0  0  0  0  0  0  0  0  0  0
   -6.8726   -1.2964    0.0000 C   0  0  0  0  0  0  0  0  0  0  0  0
  -10.4450   -0.8839    0.0000 O   0  0  0  0  0  0  0  0  0  0  0  0
  -11.1595   -1.2964    0.0000 C   0  0  0  0  0  0  0  0  0  0  0  0
   -9.0161   -3.3589    0.0000 C   0  0  0  0  0  0  0  0  0  0  0  0
   -8.3016   -3.7714    0.0000 N   0  0  0  0  0  0  0  0  0  0  0  0
   -9.7305   -3.7714    0.0000 C   0  0  0  0  0  0  0  0  0  0  0  0
   -7.5871   -3.3589    0.0000 C   0  0  0  0  0  0  0  0  0  0  0  0
   -6.8727   -3.7714    0.0000 C   0  0  0  0  0  0  0  0  0  0  0  0
   -7.5871   -2.5339    0.0000 O   0  0  0  0  0  0  0  0  0  0  0  0
   -6.1582   -3.3589    0.0000 N   0  0  0  0  0  0  0  0  0  0  0  0
   -6.8727   -4.5964    0.0000 C   0  0  0  0  0  0  0  0  0  0  0  0
   -5.4437   -3.7714    0.0000 C   0  0  0  0  0  0  0  0  0  0  0  0
   -4.7292   -3.3589    0.0000 C   0  0  0  0  0  0  0  0  0  0  0  0
   -5.4437   -4.5964    0.0000 O   0  0  0  0  0  0  0  0  0  0  0  0
   -4.0148   -3.7714    0.0000 N   0  0  0  0  0  0  0  0  0  0  0  0
   -4.7292   -2.5339    0.0000 C   0  0  0  0  0  0  0  0  0  0  0  0
   -6.8726   -2.1214    0.0000 C   0  0  0  0  0  0  0  0  0  0  0  0
   -6.1582   -2.5339    0.0000 C   0  0  0  0  0  0  0  0  0  0  0  0
   -5.4437   -2.1214    0.0000 C   0  0  0  0  0  0  0  0  0  0  0  0
   -5.4437   -1.2964    0.0000 C   0  0  0  0  0  0  0  0  0  0  0  0
   -6.1581   -0.8839    0.0000 C   0  0  0  0  0  0  0  0  0  0  0  0
   -4.0148   -2.1214    0.0000 O   0  0  0  0  0  0  0  0  0  0  0  0
   -3.3003   -3.3589    0.0000 C   0  0  0  0  0  0  0  0  0  0  0  0
   -2.5858   -3.7714    0.0000 C   0  0  0  0  0  0  0  0  0  0  0  0
   -3.3003   -2.5339    0.0000 O   0  0  0  0  0  0  0  0  0  0  0  0
   -1.8714   -3.3589    0.0000 N   0  0  0  0  0  0  0  0  0  0  0  0
   -2.5858   -4.5964    0.0000 C   0  0  0  0  0  0  0  0  0  0  0  0
   -1.1569   -3.7714    0.0000 C   0  0  0  0  0  0  0  0  0  0  0  0
   -1.8714   -5.0089    0.0000 C   0  0  0  0  0  0  0  0  0  0  0  0
   -1.8714   -5.8339    0.0000 C   0  0  0  0  0  0  0  0  0  0  0  0
   -1.1569   -4.5964    0.0000 C   0  0  0  0  0  0  0  0  0  0  0  0
   -7.5871   -5.0089    0.0000 C   0  0  0  0  0  0  0  0  0  0  0  0
   -7.5871   -5.8339    0.0000 O   0  0  0  0  0  0  0  0  0  0  0  0
   -8.3016   -4.5964    0.0000 N   0  0  0  0  0  0  0  0  0  0  0  0
   -9.7305   -4.5964    0.0000 O   0  0  0  0  0  0  0  0  0  0  0  0
  -10.4450   -3.3589    0.0000 N   0  0  0  0  0  0  0  0  0  0  0  0
  -11.1595   -3.7714    0.0000 C   0  0  0  0  0  0  0  0  0  0  0  0
  -11.8740   -3.3589    0.0000 C   0  0  0  0  0  0  0  0  0  0  0  0
  -11.1595   -4.5964    0.0000 C   0  0  0  0  0  0  0  0  0  0  0  0
  -12.5884   -3.7714    0.0000 N   0  0  0  0  0  0  0  0  0  0  0  0
  -11.8740   -2.5339    0.0000 O   0  0  0  0  0  0  0  0  0  0  0  0
  -13.3029   -3.3589    0.0000 C   0  0  0  0  0  0  0  0  0  0  0  0
  -14.0174   -3.7714    0.0000 C   0  0  0  0  0  0  0  0  0  0  0  0
  -14.7318   -3.3589    0.0000 O   0  0  0  0  0  0  0  0  0  0  0  0
  -14.0174   -4.5964    0.0000 N   0  0  0  0  0  0  0  0  0  0  0  0
  -13.3029   -2.5339    0.0000 C   0  0  0  0  0  0  0  0  0  0  0  0
  -11.5720   -0.5819    0.0000 C   0  0  0  0  0  0  0  0  0  0  0  0
  -12.3970   -0.5819    0.0000 C   0  0  0  0  0  0  0  0  0  0  0  0
  -12.8095   -1.2964    0.0000 C   0  0  0  0  0  0  0  0  0  0  0  0
  -12.3970   -2.0109    0.0000 C   0  0  0  0  0  0  0  0  0  0  0  0
  -11.5720   -2.0109    0.0000 C   0  0  0  0  0  0  0  0  0  0  0  0
  -14.1131   -2.3784    0.0000 O   0  0  0  0  0  0  0  0  0  0  0  0
  -13.3029   -4.1839    0.0000 H   0  0  0  0  0  0  0  0  0  0  0  0
  -11.8740   -5.0089    0.0000 C   0  0  0  0  0  0  0  0  0  0  0  0
  -11.8740   -5.8339    0.0000 C   0  0  0  0  0  0  0  0  0  0  0  0
  -11.1595   -6.2464    0.0000 C   0  0  0  0  0  0  0  0  0  0  0  0
  -10.4450   -5.8339    0.0000 C   0  0  0  0  0  0  0  0  0  0  0  0
  -10.4450   -5.0089    0.0000 C   0  0  0  0  0  0  0  0  0  0  0  0
  -12.4573   -6.4173    0.0000 C   0  0  0  0  0  0  0  0  0  0  0  0
  -13.2543   -6.2037    0.0000 C   0  0  0  0  0  0  0  0  0  0  0  0
  -13.8376   -6.7871    0.0000 C   0  0  0  0  0  0  0  0  0  0  0  0
  -13.6241   -7.5840    0.0000 C   0  0  0  0  0  0  0  0  0  0  0  0
  -12.8272   -7.7976    0.0000 C   0  0  0  0  0  0  0  0  0  0  0  0
  -12.2438   -7.2142    0.0000 C   0  0  0  0  0  0  0  0  0  0  0  0
  -13.9687   -5.7912    0.0000 C   0  0  0  0  0  0  0  0  0  0  0  0
  -14.6747   -6.2182    0.0000 C   0  0  0  0  0  0  0  0  0  0  0  0
  -15.3974   -5.8203    0.0000 O   0  0  0  0  0  0  0  0  0  0  0  0
  -11.4469   -7.4277    0.0000 O   0  0  0  0  0  0  0  0  0  0  0  0
  -11.1595   -7.0714    0.0000 O   0  0  0  0  0  0  0  0  0  0  0  0
  -14.2074   -8.1674    0.0000 O   0  0  0  0  0  0  0  0  0  0  0  0
  -12.6136   -8.5945    0.0000 C   0  0  0  0  0  0  0  0  0  0  0  0
  -11.7886   -8.5945    0.0000 N   0  0  0  0  0  0  0  0  0  0  0  0
  -11.2053   -8.0111    0.0000 C   0  0  0  0  0  0  0  0  0  0  0  0
  -10.4084   -8.2246    0.0000 P   0  0  0  0  0  0  0  0  0  0  0  0
  -10.4084   -7.3996    0.0000 O   0  0  0  0  0  0  0  0  0  0  0  0
   -9.6115   -8.0111    0.0000 O   0  0  0  0  0  0  0  0  0  0  0  0
  -10.4084   -9.0496    0.0000 O   0  0  0  0  0  0  0  0  0  0  0  0
  -10.4450   -4.1839    0.0000 H   0  0  0  0  0  0  0  0  0  0  0  0
  -14.6579   -7.0430    0.0000 O   0  0  0  0  0  0  0  0  0  0  0  0
   -7.6976   -2.1214    0.0000 Cl  0  0  0  0  0  0  0  0  0  0  0  0
  -11.1595    0.1326    0.0000 Cl  0  0  0  0  0  0  0  0  0  0  0  0
  2  3  1  0
  7  2  1  0
  3  4  1  0
  4  5  1  0
  5  6  1  0
  6  7  1  0
  6  8  1  6
  4  9  1  1
  3 10  1  1
  2 11  1  0
  2 12  1  6
 11 13  1  0
 13 14  1  0
 14 15  1  0
 15 16  1  0
 16 17  1  0
 17 18  1  0
 18 19  1  0
 19 20  1  0
 20 21  1  0
 21 22  1  0
 22 23  1  0
 23 24  1  0
 24 25  1  0
 26 27  1  0
 31 26  1  0
 27 28  1  0
 28 29  1  0
 29 30  1  0
 30 31  1  0
 32 33  1  0
 34 35  1  0
 35 36  2  0
 36 37  1  0
 37 38  2  0
 33 34  2  0
 33 38  1  0
 30  8  1  1
 29 32  1  6
 27 39  1  6
 39 40  1  0
 26 41  1  1
 31 42  1  6
 38 43  1  0
 43 44  1  0
 34 45  1  0
 45 46  1  0
 36 47  1  0
 47 48  1  1
 47 49  1  0
 48 50  1  0
 50 51  1  0
 50 52  2  0
 51 53  1  0
 51 54  1  1
 53 55  1  0
 55 56  1  0
 55 57  2  0
 56 58  1  1
 56 59  1  0
 60 61  1  0
 61 62  2  0
 62 63  1  0
 63 64  2  0
 44 60  2  0
 44 64  1  0
 59 62  1  0
 59 65  1  1
 58 66  1  0
 66 67  1  0
 66 68  2  0
 67 69  1  6
 67 70  1  0
 69 71  1  0
 70 72  1  0
 72 73  1  0
 72 74  1  0
 54 75  1  0
 75 76  2  0
 75 77  1  0
 49 78  2  0
 49 79  1  0
 79 80  1  0
 80 81  1  0
 80 82  1  0
 81 83  1  0
 81 84  2  0
 83 85  1  0
 85 86  1  0
 86 87  2  0
 86 88  1  0
 85 89  1  0
 90 91  1  0
 91 92  2  0
 92 93  1  0
 93 94  2  0
 46 90  2  0
 46 94  1  0
 89 92  1  0
 89 95  1  6
 85 96  1  1
 97 98  1  0
 98 99  2  0
 99100  1  0
100101  2  0
 82 97  2  0
 82101  1  0
 98102  1  0
103104  2  0
104105  1  0
105106  2  0
106107  1  0
102103  1  0
102107  2  0
103108  1  0
108 88  1  0
109110  1  0
108109  1  1
107111  1  0
 99112  1  0
105113  1  0
106114  1  0
114115  1  0
115116  1  0
116117  1  0
117118  2  0
117119  1  0
117120  1  0
 80121  1  1
109122  2  0
 60123  1  0
 90124  1  0
M  END
> <chembl_id>
CHEMBL3301680

> <chembl_pref_name>
TELAVANCIN HYDROCHLORIDE

$$$$

     RDKit          2D

 32 34  0  0  0  0  0  0  0  0999 V2000
   10.5706   -0.9894    0.0000 C   0  0  0  0  0  0  0  0  0  0  0  0
   10.1539   -1.7018    0.0000 C   0  0  0  0  0  0  0  0  0  0  0  0
   11.2829   -1.4059    0.0000 C   0  0  0  0  0  0  0  0  0  0  0  0
    7.6805    1.3914    0.0000 C   0  0  0  0  0  0  0  0  0  0  0  0
    7.6793    0.5642    0.0000 C   0  0  0  0  0  0  0  0  0  0  0  0
    8.3940    0.1514    0.0000 C   0  0  0  0  0  0  0  0  0  0  0  0
    9.1103    0.5647    0.0000 C   0  0  0  0  0  0  0  0  0  0  0  0
    9.1074    1.3950    0.0000 C   0  0  0  0  0  0  0  0  0  0  0  0
    8.3922    1.8041    0.0000 C   0  0  0  0  0  0  0  0  0  0  0  0
    6.9649    1.8095    0.0000 C   0  0  0  0  0  0  0  0  0  0  0  0
    6.2505    2.2217    0.0000 N   0  0  0  0  0  0  0  0  0  0  0  0
    6.9646    0.1524    0.0000 C   0  0  0  0  0  0  0  0  0  0  0  0
    6.2507    0.5653    0.0000 F   0  0  0  0  0  0  0  0  0  0  0  0
    6.9640   -0.6725    0.0000 F   0  0  0  0  0  0  0  0  0  0  0  0
    6.7518    0.9492    0.0000 F   0  0  0  0  0  0  0  0  0  0  0  0
    9.7778    0.0878    0.0000 N   0  0  0  0  0  0  0  0  0  0  0  0
    9.7851   -0.7371    0.0000 C   0  0  0  0  0  0  0  0  0  0  0  0
   11.0508   -0.3134    0.0000 N   0  0  0  0  0  0  0  0  0  0  0  0
   10.5601    0.3495    0.0000 C   0  0  0  0  0  0  0  0  0  0  0  0
    9.1221   -1.2278    0.0000 O   0  0  0  0  0  0  0  0  0  0  0  0
   10.8079    1.1362    0.0000 S   0  0  0  0  0  0  0  0  0  0  0  0
   11.8745   -0.3044    0.0000 C   0  0  0  0  0  0  0  0  0  0  0  0
   12.2945   -1.0167    0.0000 C   0  0  0  0  0  0  0  0  0  0  0  0
   13.1193   -1.0082    0.0000 C   0  0  0  0  0  0  0  0  0  0  0  0
   13.5253   -0.2882    0.0000 C   0  0  0  0  0  0  0  0  0  0  0  0
   13.1004    0.4246    0.0000 C   0  0  0  0  0  0  0  0  0  0  0  0
   12.2770    0.4127    0.0000 C   0  0  0  0  0  0  0  0  0  0  0  0
   14.3502   -0.2783    0.0000 C   0  0  0  0  0  0  0  0  0  0  0  0
   14.7540    0.4409    0.0000 O   0  0  0  0  0  0  0  0  0  0  0  0
   14.7711   -0.9876    0.0000 N   0  0  0  0  0  0  0  0  0  0  0  0
   14.3673   -1.7069    0.0000 C   0  0  0  0  0  0  0  0  0  0  0  0
   13.5027    1.1448    0.0000 F   0  0  0  0  0  0  0  0  0  0  0  0
 10 11  3  0
  4 10  1  0
 17  1  1  0
  1 18  1  0
 18 19  1  0
 19 16  1  0
  7 16  1  0
 17 20  2  0
  5 12  1  0
 19 21  2  0
 18 22  1  0
  7  8  1  0
 12 13  1  0
 22 23  2  0
  5  6  1  0
 23 24  1  0
 12 14  1  0
 24 25  2  0
  8  9  2  0
 25 26  1  0
 12 15  1  0
 26 27  2  0
 27 22  1  0
 16 17  1  0
  9  4  1  0
  1  2  1  0
 25 28  1  0
 28 29  2  0
  3  1  1  0
 28 30  1  0
  4  5  2  0
 30 31  1  0
  6  7  2  0
 26 32  1  0
M  END
> <chembl_id>
CHEMBL1082407

> <chembl_pref_name>
ENZALUTAMIDE

$$$$

     RDKit          2D

 36 38  0  0  0  0  0  0  0  0999 V2000
   -0.2750    1.0250    0.0000 C   0  0  0  0  0  0  0  0  0  0  0  0
   -1.4208    1.0250    0.0000 C   0  0  0  0  0  0  0  0  0  0  0  0
   -0.8375    0.6833    0.0000 C   0  0  0  0  0  0  0  0  0  0  0  0
   -0.2750    1.7000    0.0000 C   0  0  0  0  0  0  0  0  0  0  0  0
   -1.4208    1.7000    0.0000 C   0  0  0  0  0  0  0  0  0  0  0  0
   -0.8375    2.0375    0.0000 N   0  0  0  0  0  0  0  0  0  0  0  0
    0.3250   -1.3167    0.0000 N   0  0  0  0  0  0  0  0  0  0  0  0
   -0.8375    0.0208    0.0000 C   0  0  0  0  0  0  0  0  0  0  0  0
    0.3250    0.6625    0.0000 C   0  0  0  0  0  0  0  0  0  0  0  0
   -2.0208    0.6833    0.0000 C   0  0  0  0  0  0  0  0  0  0  0  0
   -0.2583   -1.0000    0.0000 C   0  0  0  0  0  0  0  0  0  0  0  0
   -0.2583   -0.3292    0.0000 C   0  0  0  0  0  0  0  0  0  0  0  0
    0.8875   -0.9667    0.0000 O   0  0  0  0  0  0  0  0  0  0  0  0
    0.3250   -1.9917    0.0000 O   0  0  0  0  0  0  0  0  0  0  0  0
    0.3167    0.0000    0.0000 O   0  0  0  0  0  0  0  0  0  0  0  0
   -2.0208    0.0208    0.0000 O   0  0  0  0  0  0  0  0  0  0  0  0
    2.6125    0.5875    0.0000 C   0  0  0  0  0  0  0  0  0  0  0  0
    2.0542    0.9458    0.0000 C   0  0  0  0  0  0  0  0  0  0  0  0
    0.8875    1.0000    0.0000 O   0  0  0  0  0  0  0  0  0  0  0  0
   -2.6083    1.0208    0.0000 O   0  0  0  0  0  0  0  0  0  0  0  0
    0.3250    2.0458    0.0000 C   0  0  0  0  0  0  0  0  0  0  0  0
   -2.0250    2.0375    0.0000 C   0  0  0  0  0  0  0  0  0  0  0  0
    3.2000    0.8833    0.0000 C   0  0  0  0  0  0  0  0  0  0  0  0
   -1.4208   -0.3250    0.0000 C   0  0  0  0  0  0  0  0  0  0  0  0
   -0.8375   -1.3417    0.0000 C   0  0  0  0  0  0  0  0  0  0  0  0
   -1.4208   -1.0000    0.0000 C   0  0  0  0  0  0  0  0  0  0  0  0
   -3.7583   -0.3167    0.0000 O   0  0  0  0  0  0  0  0  0  0  0  0
    1.4667    0.6375    0.0000 C   0  0  0  0  0  0  0  0  0  0  0  0
   -3.1833    0.6833    0.0000 C   0  0  0  0  0  0  0  0  0  0  0  0
   -3.1833    0.0208    0.0000 C   0  0  0  0  0  0  0  0  0  0  0  0
    3.7625    0.5333    0.0000 C   0  0  0  0  0  0  0  0  0  0  0  0
    3.2125    1.5458    0.0000 C   0  0  0  0  0  0  0  0  0  0  0  0
   -4.3458    0.0083    0.0000 C   0  0  0  0  0  0  0  0  0  0  0  0
    4.3417    0.8375    0.0000 C   0  0  0  0  0  0  0  0  0  0  0  0
    3.8167    1.8583    0.0000 C   0  0  0  0  0  0  0  0  0  0  0  0
    4.3417    1.5000    0.0000 C   0  0  0  0  0  0  0  0  0  0  0  0
  2  3  1  0
  3  1  1  0
  4  1  2  0
  5  6  1  0
  6  4  1  0
  7 11  1  0
  8  3  1  0
  9  1  1  0
 10  2  1  0
 11 12  2  0
 12  8  1  0
 13  7  1  0
 14  7  2  0
 15  9  2  0
 16 10  2  0
 17 18  2  0
 18 28  1  0
 19  9  1  0
 20 10  1  0
 21  4  1  0
 22  5  1  0
 23 17  1  0
 24  8  2  0
 25 26  2  0
 26 24  1  0
 27 30  1  0
 28 19  1  0
 29 20  1  0
 30 29  1  0
 31 23  2  0
 32 23  1  0
 33 27  1  0
 34 31  1  0
 35 32  2  0
 36 35  1  0
  2  5  2  0
 11 25  1  0
 34 36  2  0
M  CHG  2   7   1  13  -1
M  END
> <chembl_id>
CHEMBL452076

> <chembl_pref_name>
CILNIDIPINE

$$$$

     RDKit          2D

 52 57  0  0  0  0  0  0  0  0999 V2000
    5.6535   -4.0289    0.0000 O   0  0  0  0  0  0  0  0  0  0  0  0
    1.0667   -2.5167    0.0000 C   0  0  0  0  0  0  0  0  0  0  0  0
    0.9083   -3.3292    0.0000 C   0  0  0  0  0  0  0  0  0  0  0  0
    0.5208   -1.8917    0.0000 C   0  0  0  0  0  0  0  0  0  0  0  0
   -0.3083   -1.9250    0.0000 N   0  0  0  0  0  0  0  0  0  0  0  0
    0.1750   -3.7167    0.0000 N   0  0  0  0  0  0  0  0  0  0  0  0
    1.6292   -3.7292    0.0000 S   0  0  0  0  0  0  0  0  0  0  0  0
    0.9333   -1.1792    0.0000 N   0  0  0  0  0  0  0  0  0  0  0  0
    1.8875   -2.4208    0.0000 C   0  0  0  0  0  0  0  0  0  0  0  0
    2.2333   -3.1625    0.0000 C   0  0  0  0  0  0  0  0  0  0  0  0
   -0.7958   -2.5875    0.0000 C   0  0  0  0  0  0  0  0  0  0  0  0
   -0.5833   -3.3875    0.0000 C   0  0  0  0  0  0  0  0  0  0  0  0
    1.7542    0.2542    0.0000 N   0  0  0  0  0  0  0  0  0  0  0  0
    1.7542   -1.1750    0.0000 C   0  0  0  0  0  0  0  0  0  0  0  0
    0.5125   -0.4625    0.0000 C   0  0  0  0  0  0  0  0  0  0  0  0
    0.9292    0.2542    0.0000 C   0  0  0  0  0  0  0  0  0  0  0  0
    2.1667   -0.4625    0.0000 C   0  0  0  0  0  0  0  0  0  0  0  0
    2.1667    0.9667    0.0000 C   0  0  0  0  0  0  0  0  0  0  0  0
    3.0417   -3.3208    0.0000 C   0  0  0  0  0  0  0  0  0  0  0  0
   -1.5875   -2.3750    0.0000 C   0  0  0  0  0  0  0  0  0  0  0  0
   -1.1625   -3.9667    0.0000 C   0  0  0  0  0  0  0  0  0  0  0  0
   -2.1750   -2.9583    0.0000 C   0  0  0  0  0  0  0  0  0  0  0  0
   -1.9583   -3.7583    0.0000 C   0  0  0  0  0  0  0  0  0  0  0  0
    4.9223   -0.8134    0.0000 C   0  0  0  0  0  0  0  0  0  0  0  0
    4.9223   -1.6384    0.0000 C   0  0  0  0  0  0  0  0  0  0  0  0
    5.6343   -2.0467    0.0000 C   0  0  0  0  0  0  0  0  0  0  0  0
    6.3463   -1.6384    0.0000 C   0  0  0  0  0  0  0  0  0  0  0  0
    5.6343   -0.3967    0.0000 C   0  0  0  0  0  0  0  0  0  0  0  0
    6.3446   -0.8164    0.0000 C   0  0  0  0  0  0  0  0  0  0  0  0
    7.0592   -0.4134    0.0000 C   0  0  0  0  0  0  0  0  0  0  0  0
    7.0698    0.4109    0.0000 C   0  0  0  0  0  0  0  0  0  0  0  0
    6.3595    0.8306    0.0000 C   0  0  0  0  0  0  0  0  0  0  0  0
    5.6387    0.4260    0.0000 C   0  0  0  0  0  0  0  0  0  0  0  0
    7.0607   -2.0511    0.0000 C   0  0  0  0  0  0  0  0  0  0  0  0
    7.7753   -1.6389    0.0000 C   0  0  0  0  0  0  0  0  0  0  0  0
    9.2044   -0.8223    0.0000 C   0  0  0  0  0  0  0  0  0  0  0  0
    8.4902   -0.4074    0.0000 C   0  0  0  0  0  0  0  0  0  0  0  0
    7.7715   -0.8177    0.0000 C   0  0  0  0  0  0  0  0  0  0  0  0
    9.1998   -1.6477    0.0000 C   0  0  0  0  0  0  0  0  0  0  0  0
    8.4872   -2.0533    0.0000 C   0  0  0  0  0  0  0  0  0  0  0  0
    8.4823   -2.8687    0.0000 C   0  0  0  0  0  0  0  0  0  0  0  0
    9.1882   -3.2846    0.0000 C   0  0  0  0  0  0  0  0  0  0  0  0
    9.9007   -2.8790    0.0000 C   0  0  0  0  0  0  0  0  0  0  0  0
    9.9074   -2.0574    0.0000 C   0  0  0  0  0  0  0  0  0  0  0  0
    5.6343   -2.8717    0.0000 O   0  0  0  0  0  0  0  0  0  0  0  0
    4.2084   -2.0519    0.0000 C   0  0  0  0  0  0  0  0  0  0  0  0
    3.4934   -1.6404    0.0000 O   0  0  0  0  0  0  0  0  0  0  0  0
    4.2096   -2.8769    0.0000 O   0  0  0  0  0  0  0  0  0  0  0  0
    7.5515   -0.0175    0.0000 O   0  0  0  0  0  0  0  0  0  0  0  0
    8.4933    0.4176    0.0000 C   0  0  0  0  0  0  0  0  0  0  0  0
    9.2093    0.8274    0.0000 O   0  0  0  0  0  0  0  0  0  0  0  0
    7.7804    0.8328    0.0000 O   0  0  0  0  0  0  0  0  0  0  0  0
  3  2  2  0
  4  2  1  0
  5  4  2  0
  6  3  1  0
  7  3  1  0
  8  4  1  0
  9  2  1  0
 10  9  2  0
 11  5  1  0
 12  6  1  0
 13 16  1  0
 14  8  1  0
 15  8  1  0
 16 15  1  0
 17 14  1  0
 18 13  1  0
 19 10  1  0
 20 11  1  0
 21 12  1  0
 22 20  2  0
 23 21  2  0
 10  7  1  0
 11 12  2  0
 13 17  1  0
 23 22  1  0
 24 28  1  0
 25 26  1  0
 26 27  2  0
 27 29  1  0
 28 29  1  0
 28 33  2  0
 29 30  2  0
 30 31  1  0
 31 32  2  0
 32 33  1  0
 27 34  1  0
 34 35  1  0
 35 40  1  0
 35 38  2  0
 39 36  1  0
 36 37  2  0
 37 38  1  0
 39 40  1  0
 39 44  2  0
 40 41  2  0
 41 42  1  0
 42 43  2  0
 43 44  1  0
 26 45  1  0
 25 46  1  0
 46 47  1  0
 46 48  2  0
 38 49  1  0
 37 50  1  0
 24 25  2  0
 50 51  1  0
 50 52  2  0
M  END
> <chembl_id>
CHEMBL3989694

> <chembl_pref_name>
OLANZAPINE PAMOATE

$$$$

     RDKit          2D

  1  0  0  0  0  0  0  0  0  0999 V2000
   -2.3458    2.0333    0.0000 O   0  0  0  0  0  0  0  0  0  0  0  0
M  END
> <chembl_id>
CHEMBL1098659

> <chembl_pref_name>
WATER

$$$$

     RDKit          2D

 36 36  0  0  0  0  0  0  0  0999 V2000
    0.7972    1.8178    0.0000 O   0  0  0  0  0  0  0  0  0  0  0  0
    1.2097    1.1033    0.0000 C   0  0  0  0  0  0  0  0  0  0  0  0
    0.7972    0.3889    0.0000 C   0  0  0  0  0  0  0  0  0  0  0  0
    1.2097   -0.3256    0.0000 C   0  0  0  0  0  0  0  0  0  0  0  0
    2.0347   -0.3256    0.0000 C   0  0  0  0  0  0  0  0  0  0  0  0
    2.4472    0.3889    0.0000 O   0  0  0  0  0  0  0  0  0  0  0  0
    2.0347    1.1033    0.0000 O   0  0  0  0  0  0  0  0  0  0  0  0
    2.4472   -1.0401    0.0000 O   0  0  0  0  0  0  0  0  0  0  0  0
   -6.4208    1.8714    0.0000 C   0  0  0  0  0  0  0  0  0  0  0  0
   -6.4208    1.0464    0.0000 O   0  0  0  0  0  0  0  0  0  0  0  0
   -5.7063    0.6339    0.0000 C   0  0  0  0  0  0  0  0  0  0  0  0
   -4.9918    1.0464    0.0000 C   0  0  0  0  0  0  0  0  0  0  0  0
   -4.9918    1.8714    0.0000 C   0  0  0  0  0  0  0  0  0  0  0  0
   -5.7063    2.2839    0.0000 C   0  0  0  0  0  0  0  0  0  0  0  0
   -4.2774    0.6339    0.0000 C   0  0  0  0  0  0  0  0  0  0  0  0
   -3.5629    1.0464    0.0000 C   0  0  0  0  0  0  0  0  0  0  0  0
   -3.5629    1.8714    0.0000 C   0  0  0  0  0  0  0  0  0  0  0  0
   -4.2774    2.2839    0.0000 N   0  0  0  0  0  0  0  0  0  0  0  0
   -2.8484    0.6339    0.0000 C   0  0  0  0  0  0  0  0  0  0  0  0
   -2.1339    1.0464    0.0000 O   0  0  0  0  0  0  0  0  0  0  0  0
   -2.8484    3.1089    0.0000 O   0  0  0  0  0  0  0  0  0  0  0  0
   -2.8484    2.2839    0.0000 C   0  0  0  0  0  0  0  0  0  0  0  0
   -2.1339    1.8714    0.0000 C   0  0  0  0  0  0  0  0  0  0  0  0
   -1.4195    2.2839    0.0000 C   0  0  0  0  0  0  0  0  0  0  0  0
   -3.5629    4.3464    0.0000 C   0  0  0  0  0  0  0  0  0  0  0  0
   -3.5629    3.5214    0.0000 C   0  0  0  0  0  0  0  0  0  0  0  0
   -4.2774    4.7589    0.0000 N   0  0  0  0  0  0  0  0  0  0  0  0
   -4.2774   -0.1911    0.0000 C   0  0  0  0  0  0  0  0  0  0  0  0
   -3.5629   -0.6036    0.0000 C   0  0  0  0  0  0  0  0  0  0  0  0
   -2.8484   -0.1911    0.0000 O   0  0  0  0  0  0  0  0  0  0  0  0
   -4.9918   -0.6036    0.0000 C   0  0  0  0  0  0  0  0  0  0  0  0
   -4.9918   -1.4286    0.0000 C   0  0  0  0  0  0  0  0  0  0  0  0
   -4.2774   -1.8411    0.0000 C   0  0  0  0  0  0  0  0  0  0  0  0
   -3.5629   -1.4286    0.0000 C   0  0  0  0  0  0  0  0  0  0  0  0
   -5.7063   -0.1911    0.0000 O   0  0  0  0  0  0  0  0  0  0  0  0
   -2.7424   -0.6898    0.0000 Cl  0  0  0  0  0  0  0  0  0  0  0  0
  1  2  2  0
  2  3  1  0
  3  4  2  0
  4  5  1  0
  5  6  2  0
  2  7  1  0
  5  8  1  0
  9 10  1  0
 11 12  1  0
 12 13  2  0
 13 14  1  0
 10 11  1  0
 15 16  1  0
 16 17  2  0
 17 18  1  0
 12 15  1  0
 13 18  1  0
 19 20  1  0
 21 22  1  0
 17 22  1  0
 16 19  1  0
 23 24  1  0
 25 26  1  0
 21 26  1  0
 20 23  1  0
 25 27  1  0
 28 29  2  0
 30 19  2  0
 15 28  1  1
 31 32  2  0
 32 33  1  0
 33 34  2  0
 28 31  1  0
 29 34  1  0
 11 35  2  0
 29 36  1  0
M  END
> <chembl_id>
CHEMBL4594288

> <chembl_pref_name>
LEVAMLODIPINE MALEATE

$$$$

     RDKit          2D

 17 18  0  0  1  0  0  0  0  0999 V2000
    0.5125    0.0458    0.0000 N   0  0  0  0  0  0  0  0  0  0  0  0
   -0.6333   -0.6042    0.0000 C   0  0  0  0  0  0  0  0  0  0  0  0
    1.6542   -0.5875    0.0000 C   0  0  0  0  0  0  0  0  0  0  0  0
    2.8000    0.0625    0.0000 N   0  0  0  0  0  0  0  0  0  0  0  0
    0.4917    1.3875    0.0000 C   0  0  0  0  0  0  0  0  0  0  0  0
   -0.8125   -1.9125    0.0000 C   0  0  0  0  0  0  0  0  0  0  0  0
    1.6750    2.0833    0.0000 C   0  0  0  0  0  0  0  0  0  0  0  0
    2.8000    1.3708    0.0000 C   0  0  0  0  0  0  0  0  0  0  0  0
   -1.8250   -0.0417    0.0000 O   0  0  0  0  0  0  0  0  0  0  0  0
   -2.1208   -2.1500    0.0000 C   0  0  0  0  0  0  0  0  0  0  0  0
   -2.7375   -1.0250    0.0000 C   0  0  0  0  0  0  0  0  0  0  0  0
    1.6750   -1.9292    0.0000 O   0  0  0  0  0  0  0  0  0  0  0  0
    3.9792    2.0625    0.0000 O   0  0  0  0  0  0  0  0  0  0  0  0
    1.6917    3.4458    0.0000 F   0  0  0  0  0  0  0  0  0  0  0  0
    0.1125   -2.8792    0.0000 O   0  0  0  0  0  0  0  0  0  0  0  0
   -2.7375   -3.3417    0.0000 O   0  0  0  0  0  0  0  0  0  0  0  0
   -4.0833   -0.8792    0.0000 C   0  0  0  0  0  0  0  0  0  0  0  0
  2  1  1  1
  3  1  1  0
  4  3  1  0
  5  1  1  0
  6  2  1  0
  7  5  2  0
  8  7  1  0
  9  2  1  0
 10  6  1  0
 11  9  1  0
 12  3  2  0
 13  8  2  0
 14  7  1  0
  6 15  1  6
 10 16  1  6
 11 17  1  1
  4  8  1  0
 10 11  1  0
M  END
> <chembl_id>
CHEMBL1130

> <chembl_pref_name>
DOXIFLURIDINE

$$$$

     RDKit          2D

 23 25  0  0  0  0  0  0  0  0999 V2000
   -0.4833    0.9500    0.0000 N   0  0  0  0  0  0  0  0  0  0  0  0
    0.0000    0.1208    0.0000 C   0  0  0  0  0  0  0  0  0  0  0  0
    0.9792    0.1208    0.0000 C   0  0  0  0  0  0  0  0  0  0  0  0
   -0.4833   -0.7375    0.0000 C   0  0  0  0  0  0  0  0  0  0  0  0
   -1.4333   -0.7375    0.0000 C   0  0  0  0  0  0  0  0  0  0  0  0
   -1.9083    0.1208    0.0000 C   0  0  0  0  0  0  0  0  0  0  0  0
    1.4542    0.9500    0.0000 C   0  0  0  0  0  0  0  0  0  0  0  0
    1.4542   -0.7375    0.0000 C   0  0  0  0  0  0  0  0  0  0  0  0
   -1.4333    0.9500    0.0000 C   0  0  0  0  0  0  0  0  0  0  0  0
    2.4375   -0.7375    0.0000 C   0  0  0  0  0  0  0  0  0  0  0  0
    2.4375    0.9500    0.0000 C   0  0  0  0  0  0  0  0  0  0  0  0
    2.9167    0.1208    0.0000 C   0  0  0  0  0  0  0  0  0  0  0  0
    0.0000    1.7875    0.0000 C   0  0  0  0  0  0  0  0  0  0  0  0
   -2.8875    0.1208    0.0000 C   0  0  0  0  0  0  0  0  0  0  0  0
    0.9542    1.7875    0.0000 C   0  0  0  0  0  0  0  0  0  0  0  0
   -1.9375   -1.6042    0.0000 O   0  0  0  0  0  0  0  0  0  0  0  0
    2.9167   -1.6042    0.0000 O   0  0  0  0  0  0  0  0  0  0  0  0
    3.8667    0.1208    0.0000 O   0  0  0  0  0  0  0  0  0  0  0  0
   -3.3625   -0.7375    0.0000 C   0  0  0  0  0  0  0  0  0  0  0  0
    4.3417   -0.7375    0.0000 C   0  0  0  0  0  0  0  0  0  0  0  0
    3.9000   -1.6042    0.0000 C   0  0  0  0  0  0  0  0  0  0  0  0
   -4.3458   -0.7542    0.0000 C   0  0  0  0  0  0  0  0  0  0  0  0
   -2.8583   -1.5792    0.0000 C   0  0  0  0  0  0  0  0  0  0  0  0
  2  1  1  0
  3  2  1  0
  4  2  1  0
  5  6  1  0
  6  9  1  0
  7 15  1  0
  8  3  1  0
  9  1  1  0
 10  8  2  0
 11  7  1  0
 12 11  2  0
 13  1  1  0
 14  6  1  0
 15 13  1  0
 16  5  2  0
 17 10  1  0
 18 12  1  0
 19 14  1  0
 20 18  1  0
 21 17  1  0
 22 19  1  0
 23 19  1  0
  3  7  2  0
  4  5  1  0
 10 12  1  0
M  END
> <chembl_id>
CHEMBL117785

> <chembl_pref_name>
TETRABENAZINE

$$$$

     RDKit          2D

 25 26  0  0  0  0  0  0  0  0999 V2000
    5.3792   -5.7167    0.0000 C   0  0  0  0  0  0  0  0  0  0  0  0
    4.1667   -5.7167    0.0000 C   0  0  0  0  0  0  0  0  0  0  0  0
    4.7875   -5.3875    0.0000 C   0  0  0  0  0  0  0  0  0  0  0  0
    5.3792   -6.4167    0.0000 C   0  0  0  0  0  0  0  0  0  0  0  0
    4.1667   -6.4167    0.0000 C   0  0  0  0  0  0  0  0  0  0  0  0
    4.7792   -6.7750    0.0000 N   0  0  0  0  0  0  0  0  0  0  0  0
    4.7875   -4.2917    0.0000 C   0  0  0  0  0  0  0  0  0  0  0  0
    3.5625   -5.3667    0.0000 C   0  0  0  0  0  0  0  0  0  0  0  0
    6.0042   -5.3667    0.0000 C   0  0  0  0  0  0  0  0  0  0  0  0
    5.3792   -3.9542    0.0000 C   0  0  0  0  0  0  0  0  0  0  0  0
    5.3792   -3.2417    0.0000 C   0  0  0  0  0  0  0  0  0  0  0  0
    6.0042   -4.7042    0.0000 O   0  0  0  0  0  0  0  0  0  0  0  0
    3.5542   -4.7042    0.0000 O   0  0  0  0  0  0  0  0  0  0  0  0
    5.9417   -4.2542    0.0000 Cl  0  0  0  0  0  0  0  0  0  0  0  0
    2.9667   -5.7125    0.0000 O   0  0  0  0  0  0  0  0  0  0  0  0
    6.6042   -5.7042    0.0000 O   0  0  0  0  0  0  0  0  0  0  0  0
    4.1667   -3.9542    0.0000 C   0  0  0  0  0  0  0  0  0  0  0  0
    6.0042   -6.7750    0.0000 C   0  0  0  0  0  0  0  0  0  0  0  0
    3.5625   -6.7750    0.0000 C   0  0  0  0  0  0  0  0  0  0  0  0
    5.9667   -2.8875    0.0000 Cl  0  0  0  0  0  0  0  0  0  0  0  0
    4.1667   -3.2417    0.0000 C   0  0  0  0  0  0  0  0  0  0  0  0
    4.7875   -2.8792    0.0000 C   0  0  0  0  0  0  0  0  0  0  0  0
    7.2042   -5.3417    0.0000 C   0  0  0  0  0  0  0  0  0  0  0  0
    2.3542   -5.3375    0.0000 C   0  0  0  0  0  0  0  0  0  0  0  0
    7.7875   -5.7000    0.0000 C   0  0  0  0  0  0  0  0  0  0  0  0
  2  3  1  0
  3  1  1  0
  4  1  2  0
  5  6  1  0
  6  4  1  0
  7  3  1  0
  8  2  1  0
  9  1  1  0
 10  7  1  0
 11 10  2  0
 12  9  2  0
 13  8  2  0
 14 10  1  0
 15  8  1  0
 16  9  1  0
 17  7  2  0
 18  4  1  0
 19  5  1  0
 20 11  1  0
 21 17  1  0
 22 21  2  0
 23 16  1  0
 24 15  1  0
 25 23  1  0
  5  2  2  0
 22 11  1  0
M  END
> <chembl_id>
CHEMBL1480

> <chembl_pref_name>
FELODIPINE

$$$$

     RDKit          2D

123132  0  0  0  0  0  0  0  0999 V2000
   -8.0143    3.3000    0.0000 C   0  0  0  0  0  0  0  0  0  0  0  0
   -8.4268    4.0145    0.0000 C   0  0  0  0  0  0  0  0  0  0  0  0
   -9.2518    4.0145    0.0000 C   0  0  0  0  0  0  0  0  0  0  0  0
   -9.6643    3.3000    0.0000 O   0  0  0  0  0  0  0  0  0  0  0  0
   -9.2518    2.5855    0.0000 C   0  0  0  0  0  0  0  0  0  0  0  0
   -8.4268    2.5855    0.0000 C   0  0  0  0  0  0  0  0  0  0  0  0
   -9.6643    1.8711    0.0000 O   0  0  0  0  0  0  0  0  0  0  0  0
   -9.6643    4.7289    0.0000 C   0  0  0  0  0  0  0  0  0  0  0  0
   -8.0143    4.7289    0.0000 O   0  0  0  0  0  0  0  0  0  0  0  0
   -7.6018    4.0145    0.0000 N   0  0  0  0  0  0  0  0  0  0  0  0
   -7.8007    2.5031    0.0000 C   0  0  0  0  0  0  0  0  0  0  0  0
   -6.7768    4.0145    0.0000 C   0  0  0  0  0  0  0  0  0  0  0  0
   -6.3643    4.7289    0.0000 C   0  0  0  0  0  0  0  0  0  0  0  0
   -5.5393    4.7289    0.0000 N   0  0  0  0  0  0  0  0  0  0  0  0
   -5.1268    5.4434    0.0000 C   0  0  0  0  0  0  0  0  0  0  0  0
   -4.3018    5.4434    0.0000 C   0  0  0  0  0  0  0  0  0  0  0  0
   -3.8893    6.1579    0.0000 C   0  0  0  0  0  0  0  0  0  0  0  0
   -3.0643    6.1579    0.0000 C   0  0  0  0  0  0  0  0  0  0  0  0
   -2.6518    6.8724    0.0000 C   0  0  0  0  0  0  0  0  0  0  0  0
   -1.8268    6.8724    0.0000 C   0  0  0  0  0  0  0  0  0  0  0  0
   -1.4143    7.5868    0.0000 C   0  0  0  0  0  0  0  0  0  0  0  0
   -0.5893    7.5868    0.0000 C   0  0  0  0  0  0  0  0  0  0  0  0
   -0.1768    8.3013    0.0000 C   0  0  0  0  0  0  0  0  0  0  0  0
    0.6482    8.3013    0.0000 C   0  0  0  0  0  0  0  0  0  0  0  0
   -6.6000    0.8545    0.0000 C   0  0  0  0  0  0  0  0  0  0  0  0
   -7.0125    1.5689    0.0000 C   0  0  0  0  0  0  0  0  0  0  0  0
   -7.8375    1.5689    0.0000 O   0  0  0  0  0  0  0  0  0  0  0  0
   -8.2500    0.8545    0.0000 C   0  0  0  0  0  0  0  0  0  0  0  0
   -7.8375    0.1400    0.0000 C   0  0  0  0  0  0  0  0  0  0  0  0
   -7.0125    0.1400    0.0000 C   0  0  0  0  0  0  0  0  0  0  0  0
   -9.0161   -0.0589    0.0000 O   0  0  0  0  0  0  0  0  0  0  0  0
   -9.0161   -0.8839    0.0000 C   0  0  0  0  0  0  0  0  0  0  0  0
   -9.7306   -1.2964    0.0000 C   0  0  0  0  0  0  0  0  0  0  0  0
   -9.7306   -2.1214    0.0000 C   0  0  0  0  0  0  0  0  0  0  0  0
   -9.0161   -2.5339    0.0000 C   0  0  0  0  0  0  0  0  0  0  0  0
   -8.3016   -2.1214    0.0000 C   0  0  0  0  0  0  0  0  0  0  0  0
   -8.3016   -1.2964    0.0000 C   0  0  0  0  0  0  0  0  0  0  0  0
   -6.6000    2.2834    0.0000 C   0  0  0  0  0  0  0  0  0  0  0  0
   -7.0125    2.9979    0.0000 O   0  0  0  0  0  0  0  0  0  0  0  0
   -5.7750    0.8545    0.0000 O   0  0  0  0  0  0  0  0  0  0  0  0
   -6.6000   -0.5745    0.0000 O   0  0  0  0  0  0  0  0  0  0  0  0
   -7.5871   -0.8839    0.0000 O   0  0  0  0  0  0  0  0  0  0  0  0
   -6.8726   -1.2964    0.0000 C   0  0  0  0  0  0  0  0  0  0  0  0
  -10.4450   -0.8839    0.0000 O   0  0  0  0  0  0  0  0  0  0  0  0
  -11.1595   -1.2964    0.0000 C   0  0  0  0  0  0  0  0  0  0  0  0
   -9.0161   -3.3589    0.0000 C   0  0  0  0  0  0  0  0  0  0  0  0
   -8.3016   -3.7714    0.0000 N   0  0  0  0  0  0  0  0  0  0  0  0
   -9.7305   -3.7714    0.0000 C   0  0  0  0  0  0  0  0  0  0  0  0
   -7.5871   -3.3589    0.0000 C   0  0  0  0  0  0  0  0  0  0  0  0
   -6.8727   -3.7714    0.0000 C   0  0  0  0  0  0  0  0  0  0  0  0
   -7.5871   -2.5339    0.0000 O   0  0  0  0  0  0  0  0  0  0  0  0
   -6.1582   -3.3589    0.0000 N   0  0  0  0  0  0  0  0  0  0  0  0
   -6.8727   -4.5964    0.0000 C   0  0  0  0  0  0  0  0  0  0  0  0
   -5.4437   -3.7714    0.0000 C   0  0  0  0  0  0  0  0  0  0  0  0
   -4.7292   -3.3589    0.0000 C   0  0  0  0  0  0  0  0  0  0  0  0
   -5.4437   -4.5964    0.0000 O   0  0  0  0  0  0  0  0  0  0  0  0
   -4.0148   -3.7714    0.0000 N   0  0  0  0  0  0  0  0  0  0  0  0
   -4.7292   -2.5339    0.0000 C   0  0  0  0  0  0  0  0  0  0  0  0
   -6.8726   -2.1214    0.0000 C   0  0  0  0  0  0  0  0  0  0  0  0
   -6.1582   -2.5339    0.0000 C   0  0  0  0  0  0  0  0  0  0  0  0
   -5.4437   -2.1214    0.0000 C   0  0  0  0  0  0  0  0  0  0  0  0
   -5.4437   -1.2964    0.0000 C   0  0  0  0  0  0  0  0  0  0  0  0
   -6.1581   -0.8839    0.0000 C   0  0  0  0  0  0  0  0  0  0  0  0
   -4.0148   -2.1214    0.0000 O   0  0  0  0  0  0  0  0  0  0  0  0
   -3.3003   -3.3589    0.0000 C   0  0  0  0  0  0  0  0  0  0  0  0
   -2.5858   -3.7714    0.0000 C   0  0  0  0  0  0  0  0  0  0  0  0
   -3.3003   -2.5339    0.0000 O   0  0  0  0  0  0  0  0  0  0  0  0
   -1.8714   -3.3589    0.0000 N   0  0  0  0  0  0  0  0  0  0  0  0
   -2.5858   -4.5964    0.0000 C   0  0  0  0  0  0  0  0  0  0  0  0
   -1.1569   -3.7714    0.0000 C   0  0  0  0  0  0  0  0  0  0  0  0
   -1.8714   -5.0089    0.0000 C   0  0  0  0  0  0  0  0  0  0  0  0
   -1.8714   -5.8339    0.0000 C   0  0  0  0  0  0  0  0  0  0  0  0
   -1.1569   -4.5964    0.0000 C   0  0  0  0  0  0  0  0  0  0  0  0
   -7.5871   -5.0089    0.0000 C   0  0  0  0  0  0  0  0  0  0  0  0
   -7.5871   -5.8339    0.0000 O   0  0  0  0  0  0  0  0  0  0  0  0
   -8.3016   -4.5964    0.0000 N   0  0  0  0  0  0  0  0  0  0  0  0
   -9.7305   -4.5964    0.0000 O   0  0  0  0  0  0  0  0  0  0  0  0
  -10.4450   -3.3589    0.0000 N   0  0  0  0  0  0  0  0  0  0  0  0
  -11.1595   -3.7714    0.0000 C   0  0  0  0  0  0  0  0  0  0  0  0
  -11.8740   -3.3589    0.0000 C   0  0  0  0  0  0  0  0  0  0  0  0
  -11.1595   -4.5964    0.0000 C   0  0  0  0  0  0  0  0  0  0  0  0
  -12.5884   -3.7714    0.0000 N   0  0  0  0  0  0  0  0  0  0  0  0
  -11.8740   -2.5339    0.0000 O   0  0  0  0  0  0  0  0  0  0  0  0
  -13.3029   -3.3589    0.0000 C   0  0  0  0  0  0  0  0  0  0  0  0
  -14.0174   -3.7714    0.0000 C   0  0  0  0  0  0  0  0  0  0  0  0
  -14.7318   -3.3589    0.0000 O   0  0  0  0  0  0  0  0  0  0  0  0
  -14.0174   -4.5964    0.0000 N   0  0  0  0  0  0  0  0  0  0  0  0
  -13.3029   -2.5339    0.0000 C   0  0  0  0  0  0  0  0  0  0  0  0
  -11.5720   -0.5819    0.0000 C   0  0  0  0  0  0  0  0  0  0  0  0
  -12.3970   -0.5819    0.0000 C   0  0  0  0  0  0  0  0  0  0  0  0
  -12.8095   -1.2964    0.0000 C   0  0  0  0  0  0  0  0  0  0  0  0
  -12.3970   -2.0109    0.0000 C   0  0  0  0  0  0  0  0  0  0  0  0
  -11.5720   -2.0109    0.0000 C   0  0  0  0  0  0  0  0  0  0  0  0
  -14.1131   -2.3784    0.0000 O   0  0  0  0  0  0  0  0  0  0  0  0
  -13.3029   -4.1839    0.0000 H   0  0  0  0  0  0  0  0  0  0  0  0
  -11.8740   -5.0089    0.0000 C   0  0  0  0  0  0  0  0  0  0  0  0
  -11.8740   -5.8339    0.0000 C   0  0  0  0  0  0  0  0  0  0  0  0
  -11.1595   -6.2464    0.0000 C   0  0  0  0  0  0  0  0  0  0  0  0
  -10.4450   -5.8339    0.0000 C   0  0  0  0  0  0  0  0  0  0  0  0
  -10.4450   -5.0089    0.0000 C   0  0  0  0  0  0  0  0  0  0  0  0
  -12.4573   -6.4173    0.0000 C   0  0  0  0  0  0  0  0  0  0  0  0
  -13.2543   -6.2037    0.0000 C   0  0  0  0  0  0  0  0  0  0  0  0
  -13.8376   -6.7871    0.0000 C   0  0  0  0  0  0  0  0  0  0  0  0
  -13.6241   -7.5840    0.0000 C   0  0  0  0  0  0  0  0  0  0  0  0
  -12.8272   -7.7976    0.0000 C   0  0  0  0  0  0  0  0  0  0  0  0
  -12.2438   -7.2142    0.0000 C   0  0  0  0  0  0  0  0  0  0  0  0
  -13.9687   -5.7912    0.0000 C   0  0  0  0  0  0  0  0  0  0  0  0
  -14.6747   -6.2182    0.0000 C   0  0  0  0  0  0  0  0  0  0  0  0
  -15.3974   -5.8203    0.0000 O   0  0  0  0  0  0  0  0  0  0  0  0
  -11.4469   -7.4277    0.0000 O   0  0  0  0  0  0  0  0  0  0  0  0
  -11.1595   -7.0714    0.0000 O   0  0  0  0  0  0  0  0  0  0  0  0
  -14.2074   -8.1674    0.0000 O   0  0  0  0  0  0  0  0  0  0  0  0
  -12.6136   -8.5945    0.0000 C   0  0  0  0  0  0  0  0  0  0  0  0
  -11.7886   -8.5945    0.0000 N   0  0  0  0  0  0  0  0  0  0  0  0
  -11.2053   -8.0111    0.0000 C   0  0  0  0  0  0  0  0  0  0  0  0
  -10.4084   -8.2246    0.0000 P   0  0  0  0  0  0  0  0  0  0  0  0
  -10.4084   -7.3996    0.0000 O   0  0  0  0  0  0  0  0  0  0  0  0
   -9.6115   -8.0111    0.0000 O   0  0  0  0  0  0  0  0  0  0  0  0
  -10.4084   -9.0496    0.0000 O   0  0  0  0  0  0  0  0  0  0  0  0
  -10.4450   -4.1839    0.0000 H   0  0  0  0  0  0  0  0  0  0  0  0
  -14.6579   -7.0430    0.0000 O   0  0  0  0  0  0  0  0  0  0  0  0
   -7.6976   -2.1214    0.0000 Cl  0  0  0  0  0  0  0  0  0  0  0  0
  -11.1595    0.1326    0.0000 Cl  0  0  0  0  0  0  0  0  0  0  0  0
  1  2  1  0
  6  1  1  0
  2  3  1  0
  3  4  1  0
  4  5  1  0
  5  6  1  0
  5  7  1  6
  3  8  1  1
  2  9  1  1
  1 10  1  0
  1 11  1  6
 10 12  1  0
 12 13  1  0
 13 14  1  0
 14 15  1  0
 15 16  1  0
 16 17  1  0
 17 18  1  0
 18 19  1  0
 19 20  1  0
 20 21  1  0
 21 22  1  0
 22 23  1  0
 23 24  1  0
 25 26  1  0
 30 25  1  0
 26 27  1  0
 27 28  1  0
 28 29  1  0
 29 30  1  0
 31 32  1  0
 33 34  1  0
 34 35  2  0
 35 36  1  0
 36 37  2  0
 32 33  2  0
 32 37  1  0
 29  7  1  1
 28 31  1  6
 26 38  1  6
 38 39  1  0
 25 40  1  1
 30 41  1  6
 37 42  1  0
 42 43  1  0
 33 44  1  0
 44 45  1  0
 35 46  1  0
 46 47  1  1
 46 48  1  0
 47 49  1  0
 49 50  1  0
 49 51  2  0
 50 52  1  0
 50 53  1  1
 52 54  1  0
 54 55  1  0
 54 56  2  0
 55 57  1  1
 55 58  1  0
 59 60  1  0
 60 61  2  0
 61 62  1  0
 62 63  2  0
 43 59  2  0
 43 63  1  0
 58 61  1  0
 58 64  1  1
 57 65  1  0
 65 66  1  0
 65 67  2  0
 66 68  1  6
 66 69  1  0
 68 70  1  0
 69 71  1  0
 71 72  1  0
 71 73  1  0
 53 74  1  0
 74 75  2  0
 74 76  1  0
 48 77  2  0
 48 78  1  0
 78 79  1  0
 79 80  1  0
 79 81  1  0
 80 82  1  0
 80 83  2  0
 82 84  1  0
 84 85  1  0
 85 86  2  0
 85 87  1  0
 84 88  1  0
 89 90  1  0
 90 91  2  0
 91 92  1  0
 92 93  2  0
 45 89  2  0
 45 93  1  0
 88 91  1  0
 88 94  1  6
 84 95  1  1
 96 97  1  0
 97 98  2  0
 98 99  1  0
 99100  2  0
 81 96  2  0
 81100  1  0
 97101  1  0
102103  2  0
103104  1  0
104105  2  0
105106  1  0
101102  1  0
101106  2  0
102107  1  0
107 87  1  0
108109  1  0
107108  1  1
106110  1  0
 98111  1  0
104112  1  0
105113  1  0
113114  1  0
114115  1  0
115116  1  0
116117  2  0
116118  1  0
116119  1  0
 79120  1  1
108121  2  0
 59122  1  0
 89123  1  0
M  END
> <chembl_id>
CHEMBL507870

> <chembl_pref_name>
TELAVANCIN

$$$$

     RDKit          2D

 30 32  0  0  1  0  0  0  0  0999 V2000
    5.3667   -4.8417    0.0000 C   0  0  0  0  0  0  0  0  0  0  0  0
    5.3750   -5.5500    0.0000 C   0  0  0  0  0  0  0  0  0  0  0  0
    4.1417   -7.6792    0.0000 C   0  0  0  0  0  0  0  0  0  0  0  0
    6.0417   -4.6167    0.0000 C   0  0  0  0  0  0  0  0  0  0  0  0
    4.1417   -6.9667    0.0000 C   0  0  0  0  0  0  0  0  0  0  0  0
    4.7542   -8.0250    0.0000 C   0  0  0  0  0  0  0  0  0  0  0  0
    4.7542   -5.9042    0.0000 C   0  0  0  0  0  0  0  0  0  0  0  0
    4.7542   -6.6167    0.0000 C   0  0  0  0  0  0  0  0  0  0  0  0
    6.0417   -5.7625    0.0000 C   0  0  0  0  0  0  0  0  0  0  0  0
    6.4542   -5.1917    0.0000 C   0  0  0  0  0  0  0  0  0  0  0  0
    3.5292   -8.0292    0.0000 C   0  0  0  0  0  0  0  0  0  0  0  0
    4.7542   -8.7375    0.0000 C   0  0  0  0  0  0  0  0  0  0  0  0
    5.3667   -7.6667    0.0000 C   0  0  0  0  0  0  0  0  0  0  0  0
    6.0375   -3.9125    0.0000 C   0  0  0  0  0  0  0  0  0  0  0  0
    4.7542   -4.4917    0.0000 C   0  0  0  0  0  0  0  0  0  0  0  0
    5.3667   -4.1292    0.0000 C   0  0  0  0  0  0  0  0  0  0  0  0
    3.5292   -8.7292    0.0000 C   0  0  0  0  0  0  0  0  0  0  0  0
    4.1417   -9.0917    0.0000 C   0  0  0  0  0  0  0  0  0  0  0  0
    4.1500   -5.5542    0.0000 C   0  0  0  0  0  0  0  0  0  0  0  0
    2.9167   -9.0792    0.0000 O   0  0  0  0  0  0  0  0  0  0  0  0
    4.1500   -4.8417    0.0000 C   0  0  0  0  0  0  0  0  0  0  0  0
    7.2625   -3.9000    0.0000 C   0  0  0  0  0  0  0  0  0  0  0  0
    6.6417   -3.5500    0.0000 C   0  0  0  0  0  0  0  0  0  0  0  0
    5.4167   -3.5625    0.0000 C   0  0  0  0  0  0  0  0  0  0  0  0
    7.8667   -3.5417    0.0000 C   0  0  0  0  0  0  0  0  0  0  0  0
    8.4875   -3.8875    0.0000 C   0  0  0  0  0  0  0  0  0  0  0  0
    8.4917   -4.5917    0.0000 C   0  0  0  0  0  0  0  0  0  0  0  0
    9.1000   -3.5292    0.0000 C   0  0  0  0  0  0  0  0  0  0  0  0
    5.3667   -6.2542    0.0000 H   0  0  0  0  0  0  0  0  0  0  0  0
    6.6542   -4.2542    0.0000 H   0  0  0  0  0  0  0  0  0  0  0  0
  2  1  1  0
  3  5  2  0
  4  1  1  0
  5  8  1  0
  6  3  1  0
  7  2  1  0
  8  7  2  0
  9  2  1  0
 10  4  1  0
 11  3  1  0
 12  6  1  0
 13  6  2  0
 14  4  1  0
 15  1  1  0
  1 16  1  1
 17 11  1  0
 18 17  1  0
 19 21  1  0
 17 20  1  6
 21 15  1  0
 22 23  1  0
 23 14  1  0
 14 24  1  6
 25 22  1  0
 26 25  1  0
 27 26  1  0
 28 26  1  0
  2 29  1  6
  4 30  1  6
 10  9  1  0
 19  7  1  0
 18 12  1  0
M  END
> <chembl_id>
CHEMBL1042

> <chembl_pref_name>
CHOLECALCIFEROL

$$$$

     RDKit          2D

 18 20  0  0  0  0  0  0  0  0999 V2000
   -0.1040    3.9743    0.0000 C   0  0  0  0  0  0  0  0  0  0  0  0
    0.6105    3.5618    0.0000 C   0  0  0  0  0  0  0  0  0  0  0  0
    0.6105    2.7368    0.0000 C   0  0  0  0  0  0  0  0  0  0  0  0
   -0.1040    2.3243    0.0000 C   0  0  0  0  0  0  0  0  0  0  0  0
   -0.8184    2.7368    0.0000 C   0  0  0  0  0  0  0  0  0  0  0  0
   -0.8184    3.5618    0.0000 C   0  0  0  0  0  0  0  0  0  0  0  0
   -1.6031    3.8167    0.0000 N   0  0  0  0  0  0  0  0  0  0  0  0
   -1.6031    2.4818    0.0000 S   0  0  0  0  0  0  0  0  0  0  0  0
   -2.0880    3.1493    0.0000 C   0  0  0  0  0  0  0  0  0  0  0  0
   -2.9130    3.1493    0.0000 C   0  0  0  0  0  0  0  0  0  0  0  0
   -4.5630    3.1493    0.0000 C   0  0  0  0  0  0  0  0  0  0  0  0
   -4.1505    3.8637    0.0000 C   0  0  0  0  0  0  0  0  0  0  0  0
   -3.3255    3.8637    0.0000 C   0  0  0  0  0  0  0  0  0  0  0  0
   -3.3255    2.4348    0.0000 C   0  0  0  0  0  0  0  0  0  0  0  0
   -4.1505    2.4348    0.0000 C   0  0  0  0  0  0  0  0  0  0  0  0
   -5.3880    3.1493    0.0000 N   0  0  0  0  0  0  0  0  0  0  0  0
   -5.8005    2.4348    0.0000 C   0  0  0  0  0  0  0  0  0  0  0  0
    1.3250    2.3243    0.0000 O   0  0  0  0  0  0  0  0  0  0  0  0
  1  2  1  0
  1  6  2  0
  2  3  2  0
  3  4  1  0
  4  5  2  0
  7  6  1  0
  6  5  1  0
  5  8  1  0
  8  9  1  0
  7  9  2  0
  9 10  1  0
 13 10  1  0
 10 14  2  0
 11 12  1  0
 12 13  2  0
 14 15  1  0
 15 11  2  0
 11 16  1  0
 16 17  1  0
  3 18  1  0
M  ISO  1  17  11
M  END
> <chembl_id>
CHEMBL207456

> <chembl_pref_name>
PITTSBURGH COMPOUND B

$$$$

     RDKit          2D

 19 21  0  0  0  0  0  0  0  0999 V2000
    4.9750   -5.0917    0.0000 N   0  0  0  0  0  0  0  0  0  0  0  0
    5.5875   -4.7375    0.0000 C   0  0  0  0  0  0  0  0  0  0  0  0
    4.9750   -5.7917    0.0000 C   0  0  0  0  0  0  0  0  0  0  0  0
    5.5792   -4.0292    0.0000 C   0  0  0  0  0  0  0  0  0  0  0  0
    4.3625   -4.7375    0.0000 C   0  0  0  0  0  0  0  0  0  0  0  0
    5.3667   -3.3667    0.0000 C   0  0  0  0  0  0  0  0  0  0  0  0
    4.3667   -4.0292    0.0000 C   0  0  0  0  0  0  0  0  0  0  0  0
    4.5750   -3.3542    0.0000 C   0  0  0  0  0  0  0  0  0  0  0  0
    4.3625   -6.1417    0.0000 O   0  0  0  0  0  0  0  0  0  0  0  0
    5.5792   -6.1417    0.0000 N   0  0  0  0  0  0  0  0  0  0  0  0
    5.7792   -2.8000    0.0000 O   0  0  0  0  0  0  0  0  0  0  0  0
    6.2000   -5.0792    0.0000 C   0  0  0  0  0  0  0  0  0  0  0  0
    6.1875   -3.6667    0.0000 C   0  0  0  0  0  0  0  0  0  0  0  0
    3.7542   -5.0917    0.0000 C   0  0  0  0  0  0  0  0  0  0  0  0
    3.7542   -3.6792    0.0000 C   0  0  0  0  0  0  0  0  0  0  0  0
    6.8042   -4.7250    0.0000 C   0  0  0  0  0  0  0  0  0  0  0  0
    6.8000   -4.0167    0.0000 C   0  0  0  0  0  0  0  0  0  0  0  0
    3.1417   -4.7417    0.0000 C   0  0  0  0  0  0  0  0  0  0  0  0
    3.1417   -4.0375    0.0000 C   0  0  0  0  0  0  0  0  0  0  0  0
  2  1  1  0
  3  1  1  0
  4  2  2  0
  5  1  1  0
  6  4  1  0
  7  5  1  0
  8  7  1  0
  9  3  2  0
 10  3  1  0
 11  6  1  0
 12  2  1  0
 13  4  1  0
 14  5  2  0
 15  7  2  0
 16 12  2  0
 17 16  1  0
 18 14  1  0
 19 18  2  0
  8  6  1  0
 19 15  1  0
 13 17  2  0
M  END
> <chembl_id>
CHEMBL1067

> <chembl_pref_name>
LICARBAZEPINE

$$$$

     RDKit          2D

 18 20  0  0  0  0  0  0  0  0999 V2000
    9.5252   -3.0121    0.0000 N   0  0  0  0  0  0  0  0  0  0  0  0
    8.7014   -2.9912    0.0000 C   0  0  0  0  0  0  0  0  0  0  0  0
    8.2561   -3.6938    0.0000 C   0  0  0  0  0  0  0  0  0  0  0  0
    7.4323   -3.6605    0.0000 C   0  0  0  0  0  0  0  0  0  0  0  0
    7.0454   -2.9288    0.0000 C   0  0  0  0  0  0  0  0  0  0  0  0
    7.4865   -2.2308    0.0000 C   0  0  0  0  0  0  0  0  0  0  0  0
    8.3145   -2.2640    0.0000 C   0  0  0  0  0  0  0  0  0  0  0  0
    9.9540   -2.3089    0.0000 C   0  0  0  0  0  0  0  0  0  0  0  0
    5.7373   -3.5478    0.0000 N   0  0  0  0  0  0  0  0  0  0  0  0
    6.2173   -2.8873    0.0000 C   0  0  0  0  0  0  0  0  0  0  0  0
    5.7373   -2.2145    0.0000 S   0  0  0  0  0  0  0  0  0  0  0  0
    4.9538   -2.4712    0.0000 C   0  0  0  0  0  0  0  0  0  0  0  0
    4.9538   -3.2952    0.0000 C   0  0  0  0  0  0  0  0  0  0  0  0
    4.2430   -3.7070    0.0000 C   0  0  0  0  0  0  0  0  0  0  0  0
    3.5282   -3.2952    0.0000 C   0  0  0  0  0  0  0  0  0  0  0  0
    3.5282   -2.4712    0.0000 C   0  0  0  0  0  0  0  0  0  0  0  0
    4.2430   -2.0593    0.0000 C   0  0  0  0  0  0  0  0  0  0  0  0
    2.8059   -2.0557    0.0000 O   0  0  0  0  0  0  0  0  0  0  0  0
  1  2  1  0
  2  3  1  0
  3  4  2  0
  4  5  1  0
  5  6  2  0
  6  7  1  0
  2  7  2  0
  1  8  1  0
  9 10  2  0
 10 11  1  0
 11 12  1  0
 12 13  1  0
  9 13  1  0
 14 15  1  0
 15 16  2  0
 16 17  1  0
 12 17  2  0
 13 14  2  0
  5 10  1  0
 16 18  1  0
M  END
> <chembl_id>
CHEMBL93124

> <chembl_pref_name>
PITTSBURGH COMPOUND B

$$$$

     RDKit          2D

 16 18  0  0  0  0  0  0  0  0999 V2000
    4.8417   -4.6917    0.0000 C   0  0  0  0  0  0  0  0  0  0  0  0
    5.4542   -5.0167    0.0000 C   0  0  0  0  0  0  0  0  0  0  0  0
    6.0625   -4.6667    0.0000 C   0  0  0  0  0  0  0  0  0  0  0  0
    4.2292   -5.0417    0.0000 O   0  0  0  0  0  0  0  0  0  0  0  0
    4.8292   -3.9750    0.0000 C   0  0  0  0  0  0  0  0  0  0  0  0
    6.0500   -3.9542    0.0000 C   0  0  0  0  0  0  0  0  0  0  0  0
    3.6042   -4.7042    0.0000 C   0  0  0  0  0  0  0  0  0  0  0  0
    4.2042   -3.6292    0.0000 C   0  0  0  0  0  0  0  0  0  0  0  0
    5.4292   -3.6042    0.0000 C   0  0  0  0  0  0  0  0  0  0  0  0
    3.5917   -3.9917    0.0000 C   0  0  0  0  0  0  0  0  0  0  0  0
    6.7417   -4.8667    0.0000 O   0  0  0  0  0  0  0  0  0  0  0  0
    7.1542   -4.2917    0.0000 C   0  0  0  0  0  0  0  0  0  0  0  0
    6.7250   -3.7250    0.0000 C   0  0  0  0  0  0  0  0  0  0  0  0
    2.9917   -5.0667    0.0000 O   0  0  0  0  0  0  0  0  0  0  0  0
    5.4667   -5.7375    0.0000 O   0  0  0  0  0  0  0  0  0  0  0  0
    6.0875   -6.0792    0.0000 C   0  0  0  0  0  0  0  0  0  0  0  0
  2  1  2  0
  3  2  1  0
  4  1  1  0
  5  1  1  0
  6  9  1  0
  7  4  1  0
  8  5  1  0
  9  5  2  0
 10  8  2  0
 11  3  1  0
 12 11  1  0
 13  6  1  0
 14  7  2  0
 15  2  1  0
 16 15  1  0
  6  3  2  0
 10  7  1  0
 12 13  2  0
M  END
> <chembl_id>
CHEMBL416

> <chembl_pref_name>
METHOXSALEN

$$$$

     RDKit          2D

 19 21  0  0  0  0  0  0  0  0999 V2000
   -3.4473    8.3973    0.0000 C   0  0  0  0  0  0  0  0  0  0  0  0
   -4.1618    7.9848    0.0000 C   0  0  0  0  0  0  0  0  0  0  0  0
   -4.1618    7.1598    0.0000 C   0  0  0  0  0  0  0  0  0  0  0  0
   -3.4473    6.7473    0.0000 C   0  0  0  0  0  0  0  0  0  0  0  0
   -2.7328    7.1598    0.0000 C   0  0  0  0  0  0  0  0  0  0  0  0
   -2.7328    7.9848    0.0000 C   0  0  0  0  0  0  0  0  0  0  0  0
   -4.8763    8.3973    0.0000 C   0  0  0  0  0  0  0  0  0  0  0  0
   -5.5908    8.8098    0.0000 N   0  0  0  0  0  0  0  0  0  0  0  0
   -2.0184    6.7473    0.0000 O   0  0  0  0  0  0  0  0  0  0  0  0
   -1.3039    7.1598    0.0000 C   0  0  0  0  0  0  0  0  0  0  0  0
   -0.5894    6.7473    0.0000 C   0  0  0  0  0  0  0  0  0  0  0  0
    0.1251    7.1598    0.0000 C   0  0  0  0  0  0  0  0  0  0  0  0
    0.1251    7.9848    0.0000 C   0  0  0  0  0  0  0  0  0  0  0  0
   -0.5894    8.3973    0.0000 C   0  0  0  0  0  0  0  0  0  0  0  0
   -1.3039    7.9848    0.0000 C   0  0  0  0  0  0  0  0  0  0  0  0
    0.9097    6.9049    0.0000 C   0  0  0  0  0  0  0  0  0  0  0  0
    1.3946    7.5723    0.0000 O   0  0  0  0  0  0  0  0  0  0  0  0
    0.9097    8.2397    0.0000 B   0  0  0  0  0  0  0  0  0  0  0  0
    1.1647    9.0243    0.0000 O   0  0  0  0  0  0  0  0  0  0  0  0
  1  2  2  0
  1  6  1  0
  2  3  1  0
  3  4  2  0
  4  5  1  0
  5  6  2  0
  2  7  1  0
  7  8  3  0
  5  9  1  0
  9 10  1  0
 10 11  2  0
 10 15  1  0
 11 12  1  0
 13 14  1  0
 14 15  2  0
 12 16  1  0
 12 13  2  0
 13 18  1  0
 16 17  1  0
 17 18  1  0
 18 19  1  0
M  END
> <chembl_id>
CHEMBL484785

> <chembl_pref_name>
CRISABOROLE

$$$$

     RDKit          2D

 37 41  0  0  0  0  0  0  0  0999 V2000
   -0.3542   -0.8250    0.0000 C   0  0  0  0  0  0  0  0  0  0  0  0
    1.0750    0.0000    0.0000 C   0  0  0  0  0  0  0  0  0  0  0  0
    1.8583    0.2583    0.0000 C   0  0  0  0  0  0  0  0  0  0  0  0
   -1.0667   -1.2375    0.0000 C   0  0  0  0  0  0  0  0  0  0  0  0
    0.3625   -1.2375    0.0000 C   0  0  0  0  0  0  0  0  0  0  0  0
   -0.3542    0.0000    0.0000 C   0  0  0  0  0  0  0  0  0  0  0  0
    1.0750   -0.8250    0.0000 C   0  0  0  0  0  0  0  0  0  0  0  0
   -1.0667   -2.0625    0.0000 C   0  0  0  0  0  0  0  0  0  0  0  0
    0.3625    0.4125    0.0000 C   0  0  0  0  0  0  0  0  0  0  0  0
   -1.7833   -2.4750    0.0000 C   0  0  0  0  0  0  0  0  0  0  0  0
    2.3458   -0.4125    0.0000 C   0  0  0  0  0  0  0  0  0  0  0  0
    2.6833    0.2583    0.0000 O   0  0  0  0  0  0  0  0  0  0  0  0
    1.8583   -1.0792    0.0000 C   0  0  0  0  0  0  0  0  0  0  0  0
    0.3625   -2.0625    0.0000 C   0  0  0  0  0  0  0  0  0  0  0  0
   -1.7833   -0.8250    0.0000 C   0  0  0  0  0  0  0  0  0  0  0  0
    2.1125    1.0417    0.0000 C   0  0  0  0  0  0  0  0  0  0  0  0
   -1.0667    0.4125    0.0000 C   0  0  0  0  0  0  0  0  0  0  0  0
    3.0958   -0.4583    0.0000 C   0  0  0  0  0  0  0  0  0  0  0  0
   -0.3542   -2.4750    0.0000 C   0  0  0  0  0  0  0  0  0  0  0  0
   -2.4958   -2.0625    0.0000 C   0  0  0  0  0  0  0  0  0  0  0  0
   -2.4958    1.2375    0.0000 C   0  0  0  0  0  0  0  0  0  0  0  0
   -3.2125    1.6500    0.0000 N   0  0  0  0  0  0  0  0  0  0  0  0
    2.6833   -1.1708    0.0000 O   0  0  0  0  0  0  0  0  0  0  0  0
    1.5625    1.6542    0.0000 O   0  0  0  0  0  0  0  0  0  0  0  0
   -1.7833    0.0000    0.0000 C   0  0  0  0  0  0  0  0  0  0  0  0
   -1.0667    1.2375    0.0000 C   0  0  0  0  0  0  0  0  0  0  0  0
   -1.7833    1.6500    0.0000 C   0  0  0  0  0  0  0  0  0  0  0  0
   -2.4958    0.4125    0.0000 C   0  0  0  0  0  0  0  0  0  0  0  0
   -3.2125   -2.4750    0.0000 O   0  0  0  0  0  0  0  0  0  0  0  0
    1.0750    0.8250    0.0000 C   0  0  0  0  0  0  0  0  0  0  0  0
   -2.4958   -1.2375    0.0000 C   0  0  0  0  0  0  0  0  0  0  0  0
    3.9208   -0.4583    0.0000 C   0  0  0  0  0  0  0  0  0  0  0  0
    2.9208    1.2125    0.0000 C   0  0  0  0  0  0  0  0  0  0  0  0
   -3.2125    2.4750    0.0000 C   0  0  0  0  0  0  0  0  0  0  0  0
   -3.9250    1.2375    0.0000 C   0  0  0  0  0  0  0  0  0  0  0  0
    1.1803   -1.8194    0.0000 H   0  0  0  0  0  0  0  0  0  0  0  0
    1.2288   -1.7370    0.0000 H   0  0  0  0  0  0  0  0  0  0  0  0
  2  7  1  0
  3  2  1  0
  4  1  2  0
  5  1  1  0
  6  1  1  0
  7  5  1  0
  8  4  1  0
  9  6  1  0
 10  8  2  0
 11 13  1  0
  3 12  1  6
 13  7  1  0
 14  5  1  0
 15  4  1  0
  3 16  1  0
  6 17  1  1
 18 12  1  0
 19  8  1  0
 20 31  1  0
 21 28  2  0
 22 21  1  0
 23 18  2  0
 24 16  2  0
 25 17  2  0
 26 17  1  0
 27 26  2  0
 28 25  1  0
 29 20  2  0
  2 30  1  1
 31 15  1  0
 32 18  1  0
 33 16  1  0
 34 22  1  0
 35 22  1  0
  9  2  1  0
 14 19  1  0
 10 20  1  0
  3 11  1  0
 21 27  1  0
  7 36  1  6
  5 37  1  1
M  END
> <chembl_id>
CHEMBL260538

> <chembl_pref_name>
ULIPRISTAL ACETATE

$$$$

     RDKit          2D

 23 26  0  0  0  0  0  0  0  0999 V2000
   -0.2458   -0.6792    0.0000 C   0  0  0  0  0  0  0  0  0  0  0  0
   -1.4208   -0.6792    0.0000 N   0  0  0  0  0  0  0  0  0  0  0  0
    0.5000   -1.5792    0.0000 C   0  0  0  0  0  0  0  0  0  0  0  0
   -0.7833   -3.2542    0.0000 S   0  0  0  0  0  0  0  0  0  0  0  0
    0.2417    0.3750    0.0000 N   0  0  0  0  0  0  0  0  0  0  0  0
    0.2542   -2.7292    0.0000 C   0  0  0  0  0  0  0  0  0  0  0  0
   -2.1333   -1.6000    0.0000 C   0  0  0  0  0  0  0  0  0  0  0  0
   -1.8458   -2.7500    0.0000 C   0  0  0  0  0  0  0  0  0  0  0  0
    1.2292    2.5208    0.0000 N   0  0  0  0  0  0  0  0  0  0  0  0
    1.6417   -1.2167    0.0000 C   0  0  0  0  0  0  0  0  0  0  0  0
   -0.4208    1.3208    0.0000 C   0  0  0  0  0  0  0  0  0  0  0  0
    1.4167    0.4958    0.0000 C   0  0  0  0  0  0  0  0  0  0  0  0
    1.1625   -3.5167    0.0000 C   0  0  0  0  0  0  0  0  0  0  0  0
    0.0542    2.4000    0.0000 C   0  0  0  0  0  0  0  0  0  0  0  0
    1.9042    1.5708    0.0000 C   0  0  0  0  0  0  0  0  0  0  0  0
    2.5250   -1.9917    0.0000 C   0  0  0  0  0  0  0  0  0  0  0  0
    2.2875   -3.1542    0.0000 C   0  0  0  0  0  0  0  0  0  0  0  0
    3.6500   -1.6375    0.0000 Cl  0  0  0  0  0  0  0  0  0  0  0  0
    1.7292    3.5958    0.0000 C   0  0  0  0  0  0  0  0  0  0  0  0
   -3.2833   -1.2792    0.0000 C   0  0  0  0  0  0  0  0  0  0  0  0
   -2.7208   -3.5875    0.0000 C   0  0  0  0  0  0  0  0  0  0  0  0
   -4.1333   -2.0917    0.0000 C   0  0  0  0  0  0  0  0  0  0  0  0
   -3.8500   -3.2375    0.0000 C   0  0  0  0  0  0  0  0  0  0  0  0
  2  1  2  0
  3  1  1  0
  4  6  1  0
  5  1  1  0
  6  3  2  0
  7  2  1  0
  8  7  2  0
  9 15  1  0
 10  3  1  0
 11  5  1  0
 12  5  1  0
 13  6  1  0
 14 11  1  0
 15 12  1  0
 16 10  2  0
 17 16  1  0
 18 16  1  0
 19  9  1  0
 20  7  1  0
 21  8  1  0
 22 20  2  0
 23 22  1  0
 14  9  1  0
  4  8  1  0
 13 17  2  0
 21 23  2  0
M  END
> <chembl_id>
CHEMBL304902

> <chembl_pref_name>
CLOTHIAPINE

$$$$

     RDKit          2D

 59 62  0  0  0  0  0  0  0  0999 V2000
    1.0018   -8.3102    0.0000 O   0  0  0  0  0  0  0  0  0  0  0  0
    2.6504   -8.2219    0.0000 O   0  0  0  0  0  0  0  0  0  0  0  0
   -1.2309   -1.3586    0.0000 N   0  0  0  0  0  0  0  0  0  0  0  0
   -1.9454   -1.7711    0.0000 C   0  0  0  0  0  0  0  0  0  0  0  0
   -1.9454   -2.5961    0.0000 C   0  0  0  0  0  0  0  0  0  0  0  0
   -1.2309   -3.0086    0.0000 C   0  0  0  0  0  0  0  0  0  0  0  0
   -0.5164   -2.5961    0.0000 C   0  0  0  0  0  0  0  0  0  0  0  0
   -0.5164   -1.7711    0.0000 C   0  0  0  0  0  0  0  0  0  0  0  0
   -1.3684   -1.9086    0.0000 C   0  0  0  0  0  0  0  0  0  0  0  0
   -1.3684   -2.4586    0.0000 C   0  0  0  0  0  0  0  0  0  0  0  0
   -2.6599   -1.3586    0.0000 C   0  0  0  0  0  0  0  0  0  0  0  0
   -3.3743   -1.7711    0.0000 C   0  0  0  0  0  0  0  0  0  0  0  0
   -3.3743   -2.5961    0.0000 C   0  0  0  0  0  0  0  0  0  0  0  0
   -4.0888   -3.0086    0.0000 C   0  0  0  0  0  0  0  0  0  0  0  0
   -4.8033   -2.5961    0.0000 N   0  0  0  0  0  0  0  0  0  0  0  0
   -4.8033   -1.7711    0.0000 C   0  0  0  0  0  0  0  0  0  0  0  0
   -4.0888   -1.3586    0.0000 C   0  0  0  0  0  0  0  0  0  0  0  0
   -2.6599   -3.0086    0.0000 C   0  0  0  0  0  0  0  0  0  0  0  0
   -2.6599   -3.8336    0.0000 C   0  0  0  0  0  0  0  0  0  0  0  0
   -3.3743   -4.2461    0.0000 C   0  0  0  0  0  0  0  0  0  0  0  0
   -4.0888   -3.8336    0.0000 C   0  0  0  0  0  0  0  0  0  0  0  0
   -1.9454   -0.9461    0.0000 H   0  0  0  0  0  0  0  0  0  0  0  0
   -2.6599   -0.5336    0.0000 O   0  0  0  0  0  0  0  0  0  0  0  0
   -1.9454   -4.2461    0.0000 O   0  0  0  0  0  0  0  0  0  0  0  0
   -1.9454   -5.0711    0.0000 C   0  0  0  0  0  0  0  0  0  0  0  0
    0.1980   -3.0086    0.0000 C   0  0  0  0  0  0  0  0  0  0  0  0
    0.9125   -2.5961    0.0000 C   0  0  0  0  0  0  0  0  0  0  0  0
   -1.2309   -3.8336    0.0000 H   0  0  0  0  0  0  0  0  0  0  0  0
    7.0786   -1.6560    0.0000 N   0  0  0  0  0  0  0  0  0  0  0  0
    6.3641   -2.0685    0.0000 C   0  0  0  0  0  0  0  0  0  0  0  0
    6.3641   -2.8935    0.0000 C   0  0  0  0  0  0  0  0  0  0  0  0
    7.0786   -3.3060    0.0000 C   0  0  0  0  0  0  0  0  0  0  0  0
    7.7931   -2.8935    0.0000 C   0  0  0  0  0  0  0  0  0  0  0  0
    7.7931   -2.0685    0.0000 C   0  0  0  0  0  0  0  0  0  0  0  0
    6.9411   -2.2060    0.0000 C   0  0  0  0  0  0  0  0  0  0  0  0
    6.9411   -2.7560    0.0000 C   0  0  0  0  0  0  0  0  0  0  0  0
    5.6497   -1.6560    0.0000 C   0  0  0  0  0  0  0  0  0  0  0  0
    4.9352   -2.0685    0.0000 C   0  0  0  0  0  0  0  0  0  0  0  0
    4.9352   -2.8935    0.0000 C   0  0  0  0  0  0  0  0  0  0  0  0
    4.2207   -3.3060    0.0000 C   0  0  0  0  0  0  0  0  0  0  0  0
    3.5062   -2.8935    0.0000 N   0  0  0  0  0  0  0  0  0  0  0  0
    3.5062   -2.0685    0.0000 C   0  0  0  0  0  0  0  0  0  0  0  0
    4.2207   -1.6560    0.0000 C   0  0  0  0  0  0  0  0  0  0  0  0
    5.6497   -3.3060    0.0000 C   0  0  0  0  0  0  0  0  0  0  0  0
    5.6497   -4.1310    0.0000 C   0  0  0  0  0  0  0  0  0  0  0  0
    4.9352   -4.5435    0.0000 C   0  0  0  0  0  0  0  0  0  0  0  0
    4.2207   -4.1310    0.0000 C   0  0  0  0  0  0  0  0  0  0  0  0
    6.3641   -1.2435    0.0000 H   0  0  0  0  0  0  0  0  0  0  0  0
    5.6497   -0.8310    0.0000 O   0  0  0  0  0  0  0  0  0  0  0  0
    6.3641   -4.5435    0.0000 O   0  0  0  0  0  0  0  0  0  0  0  0
    6.3641   -5.3685    0.0000 C   0  0  0  0  0  0  0  0  0  0  0  0
    8.5075   -3.3060    0.0000 C   0  0  0  0  0  0  0  0  0  0  0  0
    9.2220   -2.8935    0.0000 C   0  0  0  0  0  0  0  0  0  0  0  0
    7.0786   -4.1310    0.0000 H   0  0  0  0  0  0  0  0  0  0  0  0
    1.3763   -5.8062    0.0000 S   0  0  0  0  0  0  0  0  0  0  0  0
    0.9552   -5.0898    0.0000 O   0  0  0  0  0  0  0  0  0  0  0  0
    1.7828   -5.0898    0.0000 O   0  0  0  0  0  0  0  0  0  0  0  0
    2.0878   -6.2224    0.0000 O   0  0  0  0  0  0  0  0  0  0  0  0
    0.6647   -6.2224    0.0000 O   0  0  0  0  0  0  0  0  0  0  0  0
  3  4  1  0
  4  5  1  0
  5  6  1  0
  6  7  1  0
  7  8  1  0
  8  3  1  0
  3  9  1  0
  9 10  1  0
  6 10  1  0
  4 11  1  0
 11 12  1  0
 12 13  1  0
 17 12  2  0
 14 15  1  0
 15 16  2  0
 16 17  1  0
 13 18  2  0
 14 13  1  0
 21 14  2  0
 18 19  1  0
 19 20  2  0
 20 21  1  0
  4 22  1  1
 11 23  1  6
 19 24  1  0
 24 25  1  0
  7 26  1  6
 26 27  2  0
  6 28  1  1
 29 30  1  0
 30 31  1  0
 31 32  1  0
 32 33  1  0
 33 34  1  0
 34 29  1  0
 29 35  1  0
 35 36  1  0
 32 36  1  0
 30 37  1  0
 37 38  1  0
 38 39  1  0
 43 38  2  0
 40 41  1  0
 41 42  2  0
 42 43  1  0
 39 44  2  0
 40 39  1  0
 47 40  2  0
 44 45  1  0
 45 46  2  0
 46 47  1  0
 30 48  1  1
 37 49  1  6
 45 50  1  0
 50 51  1  0
 33 52  1  6
 52 53  2  0
 32 54  1  1
 56 55  2  0
 57 55  2  0
 58 55  1  0
 59 55  1  0
M  END
> <chembl_id>
CHEMBL3707183

> <chembl_pref_name>
QUINIDINE SULFATE

$$$$

     RDKit          2D

 10 10  0  0  0  0  0  0  0  0999 V2000
   -0.0875    0.0333    0.0000 C   0  0  0  0  0  0  0  0  0  0  0  0
    1.1750   -0.6750    0.0000 C   0  0  0  0  0  0  0  0  0  0  0  0
   -0.0875    1.4833    0.0000 C   0  0  0  0  0  0  0  0  0  0  0  0
    1.1750   -2.1250    0.0000 O   0  0  0  0  0  0  0  0  0  0  0  0
    2.4375    0.0333    0.0000 O   0  0  0  0  0  0  0  0  0  0  0  0
    1.1375    2.2208    0.0000 O   0  0  0  0  0  0  0  0  0  0  0  0
   -1.3208   -0.6750    0.0000 C   0  0  0  0  0  0  0  0  0  0  0  0
   -1.3208    2.1875    0.0000 C   0  0  0  0  0  0  0  0  0  0  0  0
   -2.5458    0.0708    0.0000 C   0  0  0  0  0  0  0  0  0  0  0  0
   -2.5458    1.4833    0.0000 C   0  0  0  0  0  0  0  0  0  0  0  0
  2  1  1  0
  3  1  2  0
  4  2  2  0
  5  2  1  0
  6  3  1  0
  7  1  1  0
  8  3  1  0
  9  7  2  0
 10  9  1  0
  8 10  2  0
M  END
> <chembl_id>
CHEMBL424

> <chembl_pref_name>
SALICYLIC ACID

$$$$

     RDKit          2D

 29 31  0  0  0  0  0  0  0  0999 V2000
   -4.4196   -5.9223    0.0000 C   0  0  0  0  0  0  0  0  0  0  0  0
   -4.4196   -6.7473    0.0000 C   0  0  0  0  0  0  0  0  0  0  0  0
   -3.8363   -5.3390    0.0000 C   0  0  0  0  0  0  0  0  0  0  0  0
   -3.8363   -7.3307    0.0000 C   0  0  0  0  0  0  0  0  0  0  0  0
   -4.0498   -8.1276    0.0000 O   0  0  0  0  0  0  0  0  0  0  0  0
   -3.0394   -7.1172    0.0000 O   0  0  0  0  0  0  0  0  0  0  0  0
   -4.2488   -4.6245    0.0000 O   0  0  0  0  0  0  0  0  0  0  0  0
   -3.0394   -5.5525    0.0000 O   0  0  0  0  0  0  0  0  0  0  0  0
   -9.5464   -5.1484    0.0000 C   0  0  0  0  0  0  0  0  0  0  0  0
  -10.2897   -5.5064    0.0000 C   0  0  0  0  0  0  0  0  0  0  0  0
  -10.4733   -6.3106    0.0000 C   0  0  0  0  0  0  0  0  0  0  0  0
   -9.9589   -6.9557    0.0000 C   0  0  0  0  0  0  0  0  0  0  0  0
   -9.1339   -6.9557    0.0000 C   0  0  0  0  0  0  0  0  0  0  0  0
   -8.6196   -6.3106    0.0000 N   0  0  0  0  0  0  0  0  0  0  0  0
   -8.8031   -5.5064    0.0000 C   0  0  0  0  0  0  0  0  0  0  0  0
  -10.9714   -5.0416    0.0000 C   0  0  0  0  0  0  0  0  0  0  0  0
  -10.9098   -4.2189    0.0000 C   0  0  0  0  0  0  0  0  0  0  0  0
  -10.1665   -3.8610    0.0000 C   0  0  0  0  0  0  0  0  0  0  0  0
   -9.4848   -4.3257    0.0000 C   0  0  0  0  0  0  0  0  0  0  0  0
  -10.3714   -7.6702    0.0000 C   0  0  0  0  0  0  0  0  0  0  0  0
   -9.9590   -8.3846    0.0000 C   0  0  0  0  0  0  0  0  0  0  0  0
   -9.1340   -8.3846    0.0000 C   0  0  0  0  0  0  0  0  0  0  0  0
   -8.7214   -7.6702    0.0000 N   0  0  0  0  0  0  0  0  0  0  0  0
   -8.1984   -4.9452    0.0000 C   0  0  0  0  0  0  0  0  0  0  0  0
   -7.4100   -5.1883    0.0000 N   0  0  0  0  0  0  0  0  0  0  0  0
   -7.2264   -5.9926    0.0000 C   0  0  0  0  0  0  0  0  0  0  0  0
   -7.8312   -6.5538    0.0000 C   0  0  0  0  0  0  0  0  0  0  0  0
   -8.8031   -4.6814    0.0000 H   0  0  0  0  0  0  0  0  0  0  0  0
   -6.8052   -4.6272    0.0000 C   0  0  0  0  0  0  0  0  0  0  0  0
  1  2  2  0
  1  3  1  0
  2  4  1  0
  4  5  1  0
  4  6  2  0
  3  7  2  0
  3  8  1  0
 15  9  1  0
 10 11  1  0
 11 12  1  0
 13 14  1  0
 19  9  1  0
  9 10  2  0
 10 16  1  0
 16 17  2  0
 17 18  1  0
 18 19  2  0
 12 20  1  0
 13 12  2  0
 23 13  1  0
 20 21  2  0
 21 22  1  0
 22 23  2  0
 27 14  1  0
 14 15  1  0
 15 24  1  0
 24 25  1  0
 25 26  1  0
 26 27  1  0
 15 28  1  6
 25 29  1  0
M  END
> <chembl_id>
CHEMBL2107339

> <chembl_pref_name>
ESMIRTAZAPINE MALEATE

$$$$

     RDKit          2D

 26 29  0  0  0  0  0  0  0  0999 V2000
    0.1042    0.9458    0.0000 N   0  0  0  0  0  0  0  0  0  0  0  0
    0.8250    1.3333    0.0000 C   0  0  0  0  0  0  0  0  0  0  0  0
    0.9625    2.1000    0.0000 C   0  0  0  0  0  0  0  0  0  0  0  0
    0.4375    2.7208    0.0000 C   0  0  0  0  0  0  0  0  0  0  0  0
    0.1250    0.1083    0.0000 C   0  0  0  0  0  0  0  0  0  0  0  0
   -0.3583    2.7083    0.0000 N   0  0  0  0  0  0  0  0  0  0  0  0
    1.7542    2.2250    0.0000 C   0  0  0  0  0  0  0  0  0  0  0  0
   -0.6083    1.2750    0.0000 C   0  0  0  0  0  0  0  0  0  0  0  0
    2.0875    1.5250    0.0000 S   0  0  0  0  0  0  0  0  0  0  0  0
    1.5167    0.9458    0.0000 C   0  0  0  0  0  0  0  0  0  0  0  0
   -0.8125    2.0583    0.0000 C   0  0  0  0  0  0  0  0  0  0  0  0
   -0.5625   -1.1292    0.0000 N   0  0  0  0  0  0  0  0  0  0  0  0
   -0.5625   -0.3167    0.0000 C   0  0  0  0  0  0  0  0  0  0  0  0
   -0.5375   -2.7792    0.0000 N   0  0  0  0  0  0  0  0  0  0  0  0
    0.8375   -0.2875    0.0000 O   0  0  0  0  0  0  0  0  0  0  0  0
    0.7792    3.5000    0.0000 O   0  0  0  0  0  0  0  0  0  0  0  0
   -1.2458   -1.5500    0.0000 C   0  0  0  0  0  0  0  0  0  0  0  0
    0.1292   -1.5167    0.0000 C   0  0  0  0  0  0  0  0  0  0  0  0
   -1.2375   -2.3750    0.0000 C   0  0  0  0  0  0  0  0  0  0  0  0
    0.1417   -2.3375    0.0000 C   0  0  0  0  0  0  0  0  0  0  0  0
   -1.1833    0.7000    0.0000 C   0  0  0  0  0  0  0  0  0  0  0  0
    1.6542    0.1333    0.0000 C   0  0  0  0  0  0  0  0  0  0  0  0
   -1.5833    2.2708    0.0000 C   0  0  0  0  0  0  0  0  0  0  0  0
   -0.5083   -3.5917    0.0000 C   0  0  0  0  0  0  0  0  0  0  0  0
   -1.9583    0.9208    0.0000 C   0  0  0  0  0  0  0  0  0  0  0  0
   -2.1500    1.6958    0.0000 C   0  0  0  0  0  0  0  0  0  0  0  0
  2  1  1  0
  3  2  1  0
  4  3  1  0
  5  1  1  0
  6 11  1  0
  7  3  2  0
  8  1  1  0
  9 10  1  0
 10  2  2  0
 11  8  2  0
 12 13  1  0
 13  5  1  0
 14 20  1  0
 15  5  2  0
 16  4  2  0
 17 12  1  0
 18 12  1  0
 19 17  1  0
 20 18  1  0
 21  8  1  0
 22 10  1  0
 23 11  1  0
 24 14  1  0
 25 21  2  0
 26 25  1  0
  4  6  1  0
  7  9  1  0
 23 26  2  0
 19 14  1  0
M  END
> <chembl_id>
CHEMBL253978

> <chembl_pref_name>
TELENZEPINE

$$$$

     RDKit          2D

 35 39  0  0  1  0  0  0  0  0999 V2000
    0.4000   -1.3167    0.0000 C   0  0  0  0  0  0  0  0  0  0  0  0
    2.1792   -0.2792    0.0000 C   0  0  0  0  0  0  0  0  0  0  0  0
   -0.5000   -1.8375    0.0000 C   0  0  0  0  0  0  0  0  0  0  0  0
    1.2875   -1.8375    0.0000 C   0  0  0  0  0  0  0  0  0  0  0  0
    0.4000   -0.2792    0.0000 C   0  0  0  0  0  0  0  0  0  0  0  0
    2.1792   -1.3167    0.0000 C   0  0  0  0  0  0  0  0  0  0  0  0
   -0.5000   -2.8792    0.0000 C   0  0  0  0  0  0  0  0  0  0  0  0
    1.2875    0.2333    0.0000 C   0  0  0  0  0  0  0  0  0  0  0  0
    3.1625    0.0333    0.0000 C   0  0  0  0  0  0  0  0  0  0  0  0
   -1.3958   -3.3917    0.0000 C   0  0  0  0  0  0  0  0  0  0  0  0
    1.2875   -2.8792    0.0000 C   0  0  0  0  0  0  0  0  0  0  0  0
   -1.3958   -1.3167    0.0000 C   0  0  0  0  0  0  0  0  0  0  0  0
    3.1625   -1.6375    0.0000 C   0  0  0  0  0  0  0  0  0  0  0  0
   -0.5000    0.2333    0.0000 C   0  0  0  0  0  0  0  0  0  0  0  0
    0.4000   -3.3917    0.0000 C   0  0  0  0  0  0  0  0  0  0  0  0
   -2.2875   -2.8792    0.0000 C   0  0  0  0  0  0  0  0  0  0  0  0
   -2.2875    1.2708    0.0000 C   0  0  0  0  0  0  0  0  0  0  0  0
    3.7667   -0.8000    0.0000 C   0  0  0  0  0  0  0  0  0  0  0  0
   -3.1958    1.7958    0.0000 N   0  0  0  0  0  0  0  0  0  0  0  0
   -1.3958   -0.2792    0.0000 C   0  0  0  0  0  0  0  0  0  0  0  0
   -0.5000    1.2708    0.0000 C   0  0  0  0  0  0  0  0  0  0  0  0
   -1.3958    1.7833    0.0000 C   0  0  0  0  0  0  0  0  0  0  0  0
   -2.2875    0.2333    0.0000 C   0  0  0  0  0  0  0  0  0  0  0  0
   -3.1958   -3.4000    0.0000 O   0  0  0  0  0  0  0  0  0  0  0  0
   -2.2875   -1.8375    0.0000 C   0  0  0  0  0  0  0  0  0  0  0  0
    4.0042    0.6458    0.0000 O   0  0  0  0  0  0  0  0  0  0  0  0
    2.1792    0.6208    0.0000 C   0  0  0  0  0  0  0  0  0  0  0  0
    3.4375    1.0333    0.0000 C   0  0  0  0  0  0  0  0  0  0  0  0
    2.2417    3.4833    0.0000 O   0  0  0  0  0  0  0  0  0  0  0  0
   -3.1833    2.8333    0.0000 C   0  0  0  0  0  0  0  0  0  0  0  0
   -4.0833    1.2833    0.0000 C   0  0  0  0  0  0  0  0  0  0  0  0
    2.9792    2.7458    0.0000 C   0  0  0  0  0  0  0  0  0  0  0  0
    2.7125    1.7625    0.0000 C   0  0  0  0  0  0  0  0  0  0  0  0
    1.2417   -0.7917    0.0000 H   0  0  0  0  0  0  0  0  0  0  0  0
    2.1792   -2.2792    0.0000 H   0  0  0  0  0  0  0  0  0  0  0  0
  2  8  1  0
  3  1  2  0
  4  1  1  0
  5  1  1  0
  6  4  1  0
  7  3  1  0
  8  5  1  0
  9  2  1  0
 10  7  2  0
 11  4  1  0
 12  3  1  0
 13  6  1  0
  5 14  1  1
 15 11  1  0
 16 25  1  0
 17 22  2  0
 18 13  1  0
 19 17  1  0
 20 14  1  0
 21 14  2  0
 22 21  1  0
 23 20  2  0
 24 16  2  0
 25 12  1  0
  9 26  1  6
  2 27  1  6
 28  9  1  0
 29 32  1  0
 30 19  1  0
 31 19  1  0
 32 33  1  0
 33 28  1  0
  4 34  1  1
  6 35  1  6
  6  2  1  0
  7 15  1  0
 23 17  1  0
  9 18  1  0
 10 16  1  0
M  END
> <chembl_id>
CHEMBL1908373

> <chembl_pref_name>
ONAPRISTONE

$$$$

     RDKit          2D

 22 25  0  0  1  0  0  0  0  0999 V2000
    0.6500   -0.5125    0.0000 C   0  0  0  0  0  0  0  0  0  0  0  0
   -0.6333   -0.5167    0.0000 C   0  0  0  0  0  0  0  0  0  0  0  0
    0.6167    1.6458    0.0000 C   0  0  0  0  0  0  0  0  0  0  0  0
    1.2167    0.5250    0.0000 C   0  0  0  0  0  0  0  0  0  0  0  0
    1.0292    2.6833    0.0000 N   0  0  0  0  0  0  0  0  0  0  0  0
   -1.2833    0.5000    0.0000 C   0  0  0  0  0  0  0  0  0  0  0  0
   -0.6500    1.6333    0.0000 C   0  0  0  0  0  0  0  0  0  0  0  0
    1.9292    0.0083    0.0000 C   0  0  0  0  0  0  0  0  0  0  0  0
    2.0792    2.2708    0.0000 C   0  0  0  0  0  0  0  0  0  0  0  0
   -1.2958   -1.6667    0.0000 C   0  0  0  0  0  0  0  0  0  0  0  0
   -2.5333    0.5000    0.0000 C   0  0  0  0  0  0  0  0  0  0  0  0
   -2.6208   -1.6792    0.0000 C   0  0  0  0  0  0  0  0  0  0  0  0
    1.1917   -1.7167    0.0000 C   0  0  0  0  0  0  0  0  0  0  0  0
   -3.2625   -0.5500    0.0000 C   0  0  0  0  0  0  0  0  0  0  0  0
    0.3667    3.5958    0.0000 C   0  0  0  0  0  0  0  0  0  0  0  0
    2.5542    0.5250    0.0000 C   0  0  0  0  0  0  0  0  0  0  0  0
   -3.1208   -2.5125    0.0000 O   0  0  0  0  0  0  0  0  0  0  0  0
   -2.5208   -3.5917    0.0000 C   0  0  0  0  0  0  0  0  0  0  0  0
    2.5875   -1.7167    0.0000 C   0  0  0  0  0  0  0  0  0  0  0  0
    3.2792   -0.5500    0.0000 C   0  0  0  0  0  0  0  0  0  0  0  0
   -0.0333    0.5458    0.0000 H   0  0  0  0  0  0  0  0  0  0  0  0
   -0.3083    2.5833    0.0000 H   0  0  0  0  0  0  0  0  0  0  0  0
  2  1  1  0
  3  4  1  0
  4  1  1  0
  5  9  1  0
  6  2  2  0
  7  3  1  0
  1  8  1  6
  9  8  1  0
 10  2  1  0
 11  6  1  0
 12 10  2  0
 13  1  1  0
 14 12  1  0
 15  5  1  0
 16  4  1  0
 17 12  1  0
 18 17  1  0
 19 13  1  0
 20 19  1  0
  4 21  1  6
  3 22  1  1
 16 20  1  0
  3  5  1  0
  6  7  1  0
 11 14  2  0
M  END
> <chembl_id>
CHEMBL52440

> <chembl_pref_name>
DEXTROMETHORPHAN

$$$$

     RDKit          2D

 19 21  0  0  0  0  0  0  0  0999 V2000
    0.3833    0.3958    0.0000 N   0  0  0  0  0  0  0  0  0  0  0  0
    0.6292   -0.3917    0.0000 C   0  0  0  0  0  0  0  0  0  0  0  0
    0.9875    0.9583    0.0000 C   0  0  0  0  0  0  0  0  0  0  0  0
    0.1625   -1.0750    0.0000 C   0  0  0  0  0  0  0  0  0  0  0  0
   -0.3833    0.7000    0.0000 C   0  0  0  0  0  0  0  0  0  0  0  0
   -0.6583   -1.1333    0.0000 C   0  0  0  0  0  0  0  0  0  0  0  0
   -1.1000    0.2875    0.0000 C   0  0  0  0  0  0  0  0  0  0  0  0
   -1.2208   -0.5292    0.0000 C   0  0  0  0  0  0  0  0  0  0  0  0
    0.8042    1.7625    0.0000 O   0  0  0  0  0  0  0  0  0  0  0  0
    1.7792    0.7167    0.0000 N   0  0  0  0  0  0  0  0  0  0  0  0
   -1.2417   -1.7167    0.0000 O   0  0  0  0  0  0  0  0  0  0  0  0
    1.4500   -0.4542    0.0000 C   0  0  0  0  0  0  0  0  0  0  0  0
    0.5208   -1.8167    0.0000 C   0  0  0  0  0  0  0  0  0  0  0  0
   -0.3833    1.5250    0.0000 C   0  0  0  0  0  0  0  0  0  0  0  0
   -1.8125    0.7000    0.0000 C   0  0  0  0  0  0  0  0  0  0  0  0
    1.8083   -1.1958    0.0000 C   0  0  0  0  0  0  0  0  0  0  0  0
    1.3417   -1.8792    0.0000 C   0  0  0  0  0  0  0  0  0  0  0  0
   -1.1000    1.9375    0.0000 C   0  0  0  0  0  0  0  0  0  0  0  0
   -1.8125    1.5250    0.0000 C   0  0  0  0  0  0  0  0  0  0  0  0
  2  1  1  0
  3  1  1  0
  4  2  2  0
  5  1  1  0
  6  4  1  0
  7  5  2  0
  8  7  1  0
  9  3  2  0
 10  3  1  0
  6 11  1  1
 12  2  1  0
 13  4  1  0
 14  5  1  0
 15  7  1  0
 16 12  2  0
 17 16  1  0
 18 14  2  0
 19 18  1  0
  6  8  1  0
 15 19  2  0
 17 13  2  0
M  END
> <chembl_id>
CHEMBL315985

> <chembl_pref_name>
ESLICARBAZEPINE

$$$$

     RDKit          2D

 58 66  0  0  1  0  0  0  0  0999 V2000
   11.9233    0.1844    0.0000 C   0  0  0  0  0  0  0  0  0  0  0  0
   15.5744   -0.1954    0.0000 C   0  0  0  0  0  0  0  0  0  0  0  0
   16.3068   -1.4268    0.0000 C   0  0  0  0  0  0  0  0  0  0  0  0
   11.2452    0.5913    0.0000 C   0  0  0  0  0  0  0  0  0  0  0  0
   15.5744   -1.0037    0.0000 C   0  0  0  0  0  0  0  0  0  0  0  0
   17.0066   -0.1628    0.0000 C   0  0  0  0  0  0  0  0  0  0  0  0
   14.8420   -1.4268    0.0000 N   0  0  0  0  0  0  0  0  0  0  0  0
   16.2525    0.1681    0.0000 C   0  0  0  0  0  0  0  0  0  0  0  0
   14.0879   -1.0037    0.0000 C   0  0  0  0  0  0  0  0  0  0  0  0
   14.0879   -0.1954    0.0000 C   0  0  0  0  0  0  0  0  0  0  0  0
   17.0066   -0.9929    0.0000 C   0  0  0  0  0  0  0  0  0  0  0  0
   12.6557   -0.1954    0.0000 C   0  0  0  0  0  0  0  0  0  0  0  0
   11.2452    1.3725    0.0000 C   0  0  0  0  0  0  0  0  0  0  0  0
   10.5454    0.1844    0.0000 N   0  0  0  0  0  0  0  0  0  0  0  0
   13.3935   -1.4323    0.0000 C   0  0  0  0  0  0  0  0  0  0  0  0
   13.3555    0.1790    0.0000 C   0  0  0  0  0  0  0  0  0  0  0  0
   16.2525    1.0090    0.0000 N   0  0  0  0  0  0  0  0  0  0  0  0
   16.7625   -2.1484    0.0000 C   0  0  0  0  0  0  0  0  0  0  0  0
   11.4405   -0.5317    0.0000 C   0  0  0  0  0  0  0  0  0  0  0  0
    9.8618    1.3725    0.0000 C   0  0  0  0  0  0  0  0  0  0  0  0
   12.6557   -1.0037    0.0000 C   0  0  0  0  0  0  0  0  0  0  0  0
    9.8618    0.5913    0.0000 C   0  0  0  0  0  0  0  0  0  0  0  0
   11.8907    2.6257    0.0000 N   0  0  0  0  0  0  0  0  0  0  0  0
   14.8420    0.1790    0.0000 C   0  0  0  0  0  0  0  0  0  0  0  0
   12.6286    0.5913    0.0000 C   0  0  0  0  0  0  0  0  0  0  0  0
   17.7823    0.2007    0.0000 C   0  0  0  0  0  0  0  0  0  0  0  0
   10.5454    1.7576    0.0000 C   0  0  0  0  0  0  0  0  0  0  0  0
   13.3284    2.6365    0.0000 C   0  0  0  0  0  0  0  0  0  0  0  0
   12.6286    1.3725    0.0000 C   0  0  0  0  0  0  0  0  0  0  0  0
   14.8365    1.0090    0.0000 C   0  0  0  0  0  0  0  0  0  0  0  0
   15.9324   -2.2731    0.0000 O   0  0  0  0  0  0  0  0  0  0  0  0
   17.7823    1.0578    0.0000 C   0  0  0  0  0  0  0  0  0  0  0  0
   12.6286    3.0596    0.0000 C   0  0  0  0  0  0  0  0  0  0  0  0
   11.9125    1.7576    0.0000 C   0  0  0  0  0  0  0  0  0  0  0  0
   17.6413   -2.1484    0.0000 O   0  0  0  0  0  0  0  0  0  0  0  0
   11.8311   -1.3672    0.0000 O   0  0  0  0  0  0  0  0  0  0  0  0
   10.5454    2.6257    0.0000 C   0  0  0  0  0  0  0  0  0  0  0  0
   13.3392    1.8065    0.0000 C   0  0  0  0  0  0  0  0  0  0  0  0
   17.7823   -1.3997    0.0000 O   0  0  0  0  0  0  0  0  0  0  0  0
   17.8041   -0.5534    0.0000 C   0  0  0  0  0  0  0  0  0  0  0  0
   16.3827   -2.9459    0.0000 N   0  0  0  0  0  0  0  0  0  0  0  0
   14.8365   -2.2949    0.0000 C   0  0  0  0  0  0  0  0  0  0  0  0
   17.0011    1.5135    0.0000 C   0  0  0  0  0  0  0  0  0  0  0  0
   10.5291   -0.4721    0.0000 O   0  0  0  0  0  0  0  0  0  0  0  0
   12.1023   -1.5082    0.0000 O   0  0  0  0  0  0  0  0  0  0  0  0
   13.8167    3.4177    0.0000 O   0  0  0  0  0  0  0  0  0  0  0  0
    9.1891    1.7631    0.0000 C   0  0  0  0  0  0  0  0  0  0  0  0
    9.1891    0.1844    0.0000 C   0  0  0  0  0  0  0  0  0  0  0  0
   14.2073    2.7830    0.0000 C   0  0  0  0  0  0  0  0  0  0  0  0
   12.1023   -2.3925    0.0000 C   0  0  0  0  0  0  0  0  0  0  0  0
   10.0028   -1.2478    0.0000 C   0  0  0  0  0  0  0  0  0  0  0  0
   18.5202   -0.0760    0.0000 C   0  0  0  0  0  0  0  0  0  0  0  0
   14.7281    2.0994    0.0000 C   0  0  0  0  0  0  0  0  0  0  0  0
    8.4892    1.3725    0.0000 C   0  0  0  0  0  0  0  0  0  0  0  0
    8.4892    0.5913    0.0000 C   0  0  0  0  0  0  0  0  0  0  0  0
   13.4912    0.8517    0.0000 H   0  0  0  0  0  0  0  0  0  0  0  0
   16.2525   -0.5534    0.0000 H   0  0  0  0  0  0  0  0  0  0  0  0
   15.5744   -1.9043    0.0000 H   0  0  0  0  0  0  0  0  0  0  0  0
  2 10  1  0
  3  5  1  0
  4  1  1  0
  5  2  1  0
  6  8  1  0
  7  9  1  0
  8  2  1  0
  9 15  1  0
 10 16  1  0
 11  6  1  0
 12  1  1  0
 13  4  2  0
 14  4  1  0
 15 21  2  0
 16 12  2  0
 17  8  1  0
 18  3  1  0
  1 19  1  1
 20 13  1  0
 21 12  1  0
 22 14  1  0
 23 34  1  0
  2 24  1  1
 25  1  1  0
 26  6  1  0
 27 13  1  0
 28 38  1  0
 29 25  1  0
 30 24  1  0
  3 31  1  1
 32 43  1  0
 33 28  1  0
 34 29  1  0
 35 18  2  0
 36 19  2  0
 37 27  1  0
 38 29  1  0
 11 39  1  1
  6 40  1  6
 41 18  1  0
 42  7  1  0
 43 17  1  0
 44 19  1  0
 45 21  1  0
 46 28  1  0
 47 20  1  0
 48 22  1  0
 28 49  1  6
 50 45  1  0
 51 44  1  0
 52 40  1  0
 53 49  1  0
 54 47  2  0
 55 48  2  0
 29 56  1  6
  8 57  1  6
  5 58  1  1
 20 22  2  0
 10  9  2  0
 37 23  1  0
 54 55  1  0
 23 33  1  0
  5  7  1  0
 17 30  1  0
  3 11  1  0
 26 32  2  0
M  END
> <chembl_id>
CHEMBL238071

> <chembl_pref_name>
VINDESINE

$$$$

     RDKit          2D

 22 24  0  0  0  0  0  0  0  0999 V2000
    0.1667   -0.3917    0.0000 N   0  0  0  0  0  0  0  0  0  0  0  0
   -1.0833   -0.6792    0.0000 C   0  0  0  0  0  0  0  0  0  0  0  0
   -1.0958    2.2083    0.0000 N   0  0  0  0  0  0  0  0  0  0  0  0
   -2.0833    0.1000    0.0000 C   0  0  0  0  0  0  0  0  0  0  0  0
   -2.0833    1.3958    0.0000 C   0  0  0  0  0  0  0  0  0  0  0  0
    0.7042    0.7625    0.0000 C   0  0  0  0  0  0  0  0  0  0  0  0
    0.1542    1.8958    0.0000 C   0  0  0  0  0  0  0  0  0  0  0  0
    0.9875   -1.4042    0.0000 C   0  0  0  0  0  0  0  0  0  0  0  0
   -1.3708   -1.9292    0.0000 O   0  0  0  0  0  0  0  0  0  0  0  0
    2.2542   -1.1917    0.0000 C   0  0  0  0  0  0  0  0  0  0  0  0
   -1.4000    3.4625    0.0000 C   0  0  0  0  0  0  0  0  0  0  0  0
    3.0542   -2.2042    0.0000 N   0  0  0  0  0  0  0  0  0  0  0  0
   -3.2250   -0.5500    0.0000 C   0  0  0  0  0  0  0  0  0  0  0  0
   -3.2208    2.0583    0.0000 C   0  0  0  0  0  0  0  0  0  0  0  0
    2.0292    0.6583    0.0000 C   0  0  0  0  0  0  0  0  0  0  0  0
    0.8792    3.0083    0.0000 C   0  0  0  0  0  0  0  0  0  0  0  0
    4.3417   -2.0917    0.0000 C   0  0  0  0  0  0  0  0  0  0  0  0
    2.7417   -3.4542    0.0000 C   0  0  0  0  0  0  0  0  0  0  0  0
   -4.3458    0.1000    0.0000 C   0  0  0  0  0  0  0  0  0  0  0  0
    2.1917    2.9125    0.0000 C   0  0  0  0  0  0  0  0  0  0  0  0
   -4.3458    1.3958    0.0000 C   0  0  0  0  0  0  0  0  0  0  0  0
    2.7542    1.7375    0.0000 C   0  0  0  0  0  0  0  0  0  0  0  0
  2  1  1  0
  3  7  1  0
  4  2  1  0
  5  4  2  0
  6  1  1  0
  7  6  2  0
  8  1  1  0
  9  2  2  0
 10  8  1  0
 11  3  1  0
 12 10  1  0
 13  4  1  0
 14  5  1  0
 15  6  1  0
 16  7  1  0
 17 12  1  0
 18 12  1  0
 19 13  2  0
 20 22  1  0
 21 19  1  0
 22 15  2  0
  3  5  1  0
 16 20  2  0
 14 21  2  0
M  END
> <chembl_id>
CHEMBL1442422

> <chembl_pref_name>
DIBENZEPIN

$$$$

     RDKit          2D

 22 25  0  0  0  0  0  0  0  0999 V2000
    3.2207   -4.2951    0.0000 Cl  0  0  0  0  0  0  0  0  0  0  0  0
    2.7822   -3.1780    0.0000 C   0  0  0  0  0  0  0  0  0  0  0  0
    3.7175   -2.0053    0.0000 C   0  0  0  0  0  0  0  0  0  0  0  0
    3.1695   -0.6090    0.0000 C   0  0  0  0  0  0  0  0  0  0  0  0
    1.6852   -0.3846    0.0000 C   0  0  0  0  0  0  0  0  0  0  0  0
    1.3514    1.0778    0.0000 C   0  0  0  0  0  0  0  0  0  0  0  0
    2.5248    2.0135    0.0000 C   0  0  0  0  0  0  0  0  0  0  0  0
    3.8953    1.3943    0.0000 C   0  0  0  0  0  0  0  0  0  0  0  0
    5.1143    2.2683    0.0000 C   0  0  0  0  0  0  0  0  0  0  0  0
    4.9669    3.7610    0.0000 N   0  0  0  0  0  0  0  0  0  0  0  0
    3.6005    4.3797    0.0000 C   0  0  0  0  0  0  0  0  0  0  0  0
    2.3814    3.5057    0.0000 C   0  0  0  0  0  0  0  0  0  0  0  0
    0.0000    1.7286    0.0000 C   0  0  0  0  0  0  0  0  0  0  0  0
    0.1115    3.2255    0.0000 N   0  0  0  0  0  0  0  0  0  0  0  0
   -1.1278    4.0705    0.0000 C   0  0  0  0  0  0  0  0  0  0  0  0
   -2.4793    3.4196    0.0000 C   0  0  0  0  0  0  0  0  0  0  0  0
   -2.5914    1.9238    0.0000 C   0  0  0  0  0  0  0  0  0  0  0  0
   -1.3515    1.0777    0.0000 C   0  0  0  0  0  0  0  0  0  0  0  0
   -1.6852   -0.3847    0.0000 C   0  0  0  0  0  0  0  0  0  0  0  0
   -0.7500   -1.5574    0.0000 C   0  0  0  0  0  0  0  0  0  0  0  0
    0.7500   -1.5574    0.0000 C   0  0  0  0  0  0  0  0  0  0  0  0
    1.2990   -2.9545    0.0000 C   0  0  0  0  0  0  0  0  0  0  0  0
  1  2  1  0
  2  3  2  0
  3  4  1  0
  4  5  2  0
  5  6  1  0
  6  7  2  0
  7  8  1  0
  8  9  1  0
  9 10  1  0
 10 11  1  0
 11 12  1  0
 12  7  1  0
  6 13  1  0
 13 14  2  0
 14 15  1  0
 15 16  2  0
 16 17  1  0
 17 18  2  0
 18 13  1  0
 18 19  1  0
 19 20  1  0
 20 21  1  0
 21  5  1  0
 21 22  2  0
 22  2  1  0
M  END
> <chembl_id>
CHEMBL1172

> <chembl_pref_name>
DESLORATADINE

$$$$

     RDKit          2D

 18 18  0  0  0  0  0  0  0  0999 V2000
    5.1750   -4.9292    0.0000 C   0  0  0  0  0  0  0  0  0  0  0  0
    6.3917   -4.9292    0.0000 C   0  0  0  0  0  0  0  0  0  0  0  0
    5.7875   -4.5875    0.0000 N   0  0  0  0  0  0  0  0  0  0  0  0
    4.5667   -4.5750    0.0000 N   0  0  0  0  0  0  0  0  0  0  0  0
    2.7125   -4.9167    0.0000 C   0  0  0  0  0  0  0  0  0  0  0  0
    3.3167   -4.5750    0.0000 C   0  0  0  0  0  0  0  0  0  0  0  0
    5.1625   -5.6375    0.0000 N   0  0  0  0  0  0  0  0  0  0  0  0
    6.3917   -5.6500    0.0000 N   0  0  0  0  0  0  0  0  0  0  0  0
    7.0167   -4.5875    0.0000 N   0  0  0  0  0  0  0  0  0  0  0  0
    3.9292   -4.9167    0.0000 C   0  0  0  0  0  0  0  0  0  0  0  0
    2.7125   -5.6375    0.0000 C   0  0  0  0  0  0  0  0  0  0  0  0
    3.3167   -5.9792    0.0000 C   0  0  0  0  0  0  0  0  0  0  0  0
    2.0875   -4.5750    0.0000 Cl  0  0  0  0  0  0  0  0  0  0  0  0
    3.9292   -5.6375    0.0000 C   0  0  0  0  0  0  0  0  0  0  0  0
    2.0875   -5.9917    0.0000 Cl  0  0  0  0  0  0  0  0  0  0  0  0
    7.6292   -4.9292    0.0000 C   0  0  0  0  0  0  0  0  0  0  0  0
    7.6292   -5.6500    0.0000 C   0  0  0  0  0  0  0  0  0  0  0  0
    8.2375   -4.5875    0.0000 C   0  0  0  0  0  0  0  0  0  0  0  0
  2  3  1  0
  3  1  1  0
  4  1  1  0
  5  6  1  0
  6 10  2  0
  7  1  2  0
  8  2  2  0
  9  2  1  0
 10  4  1  0
 11 12  1  0
 12 14  2  0
 13  5  1  0
 14 10  1  0
 15 11  1  0
 16  9  1  0
 17 16  1  0
 18 16  1  0
  5 11  2  0
M  END
> <chembl_id>
CHEMBL1213553

> <chembl_pref_name>
CHLORPROGUANIL

$$$$

     RDKit          2D

 49 51  0  0  1  0  0  0  0  0999 V2000
    5.5375   -6.8625    0.0000 N   0  0  0  0  0  0  0  0  0  0  0  0
    4.8292   -6.8625    0.0000 C   0  0  0  0  0  0  0  0  0  0  0  0
    7.3583   -6.8542    0.0000 C   0  0  0  0  0  0  0  0  0  0  0  0
    6.4667   -6.5000    0.0000 C   0  0  0  0  0  0  0  0  0  0  0  0
    4.2125   -6.5042    0.0000 C   0  0  0  0  0  0  0  0  0  0  0  0
    3.9917   -7.8792    0.0000 S   0  0  0  0  0  0  0  0  0  0  0  0
    4.6125   -7.5333    0.0000 C   0  0  0  0  0  0  0  0  0  0  0  0
    7.9292   -6.4375    0.0000 N   0  0  0  0  0  0  0  0  0  0  0  0
    3.5958   -6.8583    0.0000 O   0  0  0  0  0  0  0  0  0  0  0  0
    8.5042   -6.8542    0.0000 C   0  0  0  0  0  0  0  0  0  0  0  0
    7.5750   -7.5292    0.0000 C   0  0  0  0  0  0  0  0  0  0  0  0
    5.1875   -7.9542    0.0000 C   0  0  0  0  0  0  0  0  0  0  0  0
    5.7583   -7.5333    0.0000 C   0  0  0  0  0  0  0  0  0  0  0  0
    2.9833   -6.5042    0.0000 C   0  0  0  0  0  0  0  0  0  0  0  0
    3.3833   -7.5208    0.0000 C   0  0  0  0  0  0  0  0  0  0  0  0
    8.2833   -7.5292    0.0000 O   0  0  0  0  0  0  0  0  0  0  0  0
    9.1167   -6.5000    0.0000 C   0  0  0  0  0  0  0  0  0  0  0  0
    4.2083   -4.3792    0.0000 C   0  0  0  0  0  0  0  0  0  0  0  0
    9.1167   -5.7917    0.0000 C   0  0  0  0  0  0  0  0  0  0  0  0
    3.5958   -5.4417    0.0000 C   0  0  0  0  0  0  0  0  0  0  0  0
    3.5958   -4.7333    0.0000 C   0  0  0  0  0  0  0  0  0  0  0  0
    7.8917   -4.3750    0.0000 C   0  0  0  0  0  0  0  0  0  0  0  0
    4.8250   -4.7292    0.0000 N   0  0  0  0  0  0  0  0  0  0  0  0
    3.6375   -8.4917    0.0000 O   0  0  0  0  0  0  0  0  0  0  0  0
    4.3417   -8.4917    0.0000 O   0  0  0  0  0  0  0  0  0  0  0  0
    4.2083   -5.7917    0.0000 O   0  0  0  0  0  0  0  0  0  0  0  0
    7.2792   -4.7292    0.0000 C   0  0  0  0  0  0  0  0  0  0  0  0
    6.4750   -5.7917    0.0000 O   0  0  0  0  0  0  0  0  0  0  0  0
    2.9833   -5.7958    0.0000 C   0  0  0  0  0  0  0  0  0  0  0  0
    8.5042   -5.4375    0.0000 C   0  0  0  0  0  0  0  0  0  0  0  0
    8.5042   -4.7292    0.0000 C   0  0  0  0  0  0  0  0  0  0  0  0
    6.6625   -4.3750    0.0000 C   0  0  0  0  0  0  0  0  0  0  0  0
    4.2083   -3.6667    0.0000 O   0  0  0  0  0  0  0  0  0  0  0  0
    9.7292   -5.4375    0.0000 O   0  0  0  0  0  0  0  0  0  0  0  0
    2.7625   -7.8667    0.0000 C   0  0  0  0  0  0  0  0  0  0  0  0
    6.0500   -4.7292    0.0000 C   0  0  0  0  0  0  0  0  0  0  0  0
    2.3708   -6.8583    0.0000 C   0  0  0  0  0  0  0  0  0  0  0  0
    2.7625   -8.5750    0.0000 N   0  0  0  0  0  0  0  0  0  0  0  0
    9.1167   -4.3750    0.0000 O   0  0  0  0  0  0  0  0  0  0  0  0
    5.4375   -4.3750    0.0000 C   0  0  0  0  0  0  0  0  0  0  0  0
    7.2792   -5.4375    0.0000 C   0  0  0  0  0  0  0  0  0  0  0  0
    2.3708   -5.4417    0.0000 C   0  0  0  0  0  0  0  0  0  0  0  0
    3.3708   -8.9333    0.0000 C   0  0  0  0  0  0  0  0  0  0  0  0
    2.1458   -8.9250    0.0000 C   0  0  0  0  0  0  0  0  0  0  0  0
    1.7583   -6.5042    0.0000 C   0  0  0  0  0  0  0  0  0  0  0  0
    2.3708   -7.5667    0.0000 C   0  0  0  0  0  0  0  0  0  0  0  0
    3.3667   -9.6417    0.0000 C   0  0  0  0  0  0  0  0  0  0  0  0
    2.1375   -9.6375    0.0000 C   0  0  0  0  0  0  0  0  0  0  0  0
    4.8250   -6.1500    0.0000 H   0  0  0  0  0  0  0  0  0  0  0  0
  2  1  1  0
  3  4  1  0
  4  1  1  0
  5  2  1  0
  7  6  1  1
  7  2  1  0
  8  3  1  0
  9  5  1  0
 10  8  2  0
 11  3  2  0
 12 13  1  0
 13  1  1  0
 14  9  1  0
 15  6  1  0
 16 11  1  0
 17 10  1  0
 18 21  1  0
 19 17  1  0
 20 29  1  0
 21 20  2  0
 22 31  1  0
 23 18  1  0
 24  6  2  0
 25  6  2  0
 26  5  2  0
 27 22  2  0
 28  4  2  0
 29 14  1  0
 30 19  1  0
 31 30  1  0
 32 27  1  0
 33 18  2  0
 34 19  2  0
 35 15  1  0
 36 40  1  0
 14 37  1  6
 38 35  1  0
 31 39  1  1
 40 23  1  0
 41 27  1  0
 29 42  1  6
 43 38  1  0
 44 38  1  0
 45 37  1  0
 46 37  1  0
 47 43  1  0
 48 44  1  0
  2 49  1  1
  7 12  1  0
 10 16  1  0
 32 36  2  0
M  END
> <chembl_id>
CHEMBL1200937

> <chembl_pref_name>
DALFOPRISTIN

$$$$

     RDKit          2D

 18 18  0  0  0  0  0  0  0  0999 V2000
   -3.0487   -0.1919    0.0000 O   0  0  0  0  0  0  0  0  0  0  0  0
   -2.6362    0.5226    0.0000 P   0  0  0  0  0  0  0  0  0  0  0  0
   -2.2237    1.2370    0.0000 O   0  0  0  0  0  0  0  0  0  0  0  0
   -1.9217    0.1100    0.0000 O   0  0  0  0  0  0  0  0  0  0  0  0
   -1.2072    0.5225    0.0000 C   0  0  0  0  0  0  0  0  0  0  0  0
   -1.2072    1.3475    0.0000 C   0  0  0  0  0  0  0  0  0  0  0  0
   -0.4927    0.1100    0.0000 C   0  0  0  0  0  0  0  0  0  0  0  0
    0.2217    0.5225    0.0000 C   0  0  0  0  0  0  0  0  0  0  0  0
    0.2217    1.3475    0.0000 C   0  0  0  0  0  0  0  0  0  0  0  0
   -0.4927    1.7600    0.0000 C   0  0  0  0  0  0  0  0  0  0  0  0
   -0.4928   -0.7150    0.0000 O   0  0  0  0  0  0  0  0  0  0  0  0
    0.9362    1.7600    0.0000 C   0  0  0  0  0  0  0  0  0  0  0  0
    1.6507    0.5225    0.0000 N   0  0  0  0  0  0  0  0  0  0  0  0
    1.6507    1.3475    0.0000 C   0  0  0  0  0  0  0  0  0  0  0  0
    2.3651    1.7600    0.0000 C   0  0  0  0  0  0  0  0  0  0  0  0
    3.0796    1.3475    0.0000 O   0  0  0  0  0  0  0  0  0  0  0  0
   -3.3506    0.9351    0.0000 O   0  0  0  0  0  0  0  0  0  0  0  0
    2.3220    2.5839    0.0000 O   0  0  0  0  0  0  0  0  0  0  0  0
  1  2  1  0
  2  3  1  0
  4  5  1  0
  5  6  1  0
  2  4  1  0
  7  8  1  0
  8  9  2  0
  9 10  1  0
  6 10  2  0
  5  7  2  0
 11  7  1  0
 14 13  1  1
 12 14  1  0
 12  9  1  0
 15 16  1  0
 15 14  1  0
  2 17  2  0
 15 18  2  0
M  END
> <chembl_id>
CHEMBL4594379

> <chembl_pref_name>
FOSLEVODOPA

$$$$

     RDKit          2D

 19 21  0  0  0  0  0  0  0  0999 V2000
    5.1125   -5.5292    0.0000 N   0  0  0  0  0  0  0  0  0  0  0  0
    4.4917   -5.2500    0.0000 C   0  0  0  0  0  0  0  0  0  0  0  0
    4.2917   -4.5417    0.0000 C   0  0  0  0  0  0  0  0  0  0  0  0
    5.1125   -6.3167    0.0000 C   0  0  0  0  0  0  0  0  0  0  0  0
    5.7042   -5.2500    0.0000 C   0  0  0  0  0  0  0  0  0  0  0  0
    4.6917   -3.9542    0.0000 C   0  0  0  0  0  0  0  0  0  0  0  0
    5.8917   -4.5042    0.0000 C   0  0  0  0  0  0  0  0  0  0  0  0
    5.4667   -3.9500    0.0000 C   0  0  0  0  0  0  0  0  0  0  0  0
    4.5625   -6.6625    0.0000 O   0  0  0  0  0  0  0  0  0  0  0  0
    4.3167   -3.3542    0.0000 O   0  0  0  0  0  0  0  0  0  0  0  0
    5.6917   -6.6667    0.0000 N   0  0  0  0  0  0  0  0  0  0  0  0
    3.9667   -5.7625    0.0000 C   0  0  0  0  0  0  0  0  0  0  0  0
    3.5917   -4.3667    0.0000 C   0  0  0  0  0  0  0  0  0  0  0  0
    6.2042   -5.7292    0.0000 C   0  0  0  0  0  0  0  0  0  0  0  0
    6.5625   -4.3667    0.0000 C   0  0  0  0  0  0  0  0  0  0  0  0
    3.2792   -5.5542    0.0000 C   0  0  0  0  0  0  0  0  0  0  0  0
    3.0917   -4.8750    0.0000 C   0  0  0  0  0  0  0  0  0  0  0  0
    6.8875   -5.5542    0.0000 C   0  0  0  0  0  0  0  0  0  0  0  0
    7.0542   -4.8750    0.0000 C   0  0  0  0  0  0  0  0  0  0  0  0
  2  1  1  0
  3  2  1  0
  4  1  1  0
  5  1  1  0
  6  3  1  0
  7  5  1  0
  8  7  1  0
  9  4  2  0
 10  6  2  0
 11  4  1  0
 12  2  2  0
 13  3  2  0
 14  5  2  0
 15  7  2  0
 16 12  1  0
 17 16  2  0
 18 14  1  0
 19 18  2  0
  8  6  1  0
 19 15  1  0
 17 13  1  0
M  END
> <chembl_id>
CHEMBL1068

> <chembl_pref_name>
OXCARBAZEPINE

$$$$

     RDKit          2D

 29 31  0  0  0  0  0  0  0  0999 V2000
   -2.6625    0.5958    0.0000 N   0  0  0  0  0  0  0  0  0  0  0  0
   -2.6625   -0.2292    0.0000 C   0  0  0  0  0  0  0  0  0  0  0  0
   -1.9505   -0.6375    0.0000 C   0  0  0  0  0  0  0  0  0  0  0  0
   -1.2385   -0.2292    0.0000 N   0  0  0  0  0  0  0  0  0  0  0  0
   -1.2385    0.5958    0.0000 C   0  0  0  0  0  0  0  0  0  0  0  0
   -1.9505    1.0125    0.0000 C   0  0  0  0  0  0  0  0  0  0  0  0
   -3.3782    1.0062    0.0000 C   0  0  0  0  0  0  0  0  0  0  0  0
   -4.0914    0.5916    0.0000 C   0  0  0  0  0  0  0  0  0  0  0  0
   -4.8065    1.0052    0.0000 C   0  0  0  0  0  0  0  0  0  0  0  0
   -5.5193    0.5913    0.0000 C   0  0  0  0  0  0  0  0  0  0  0  0
   -5.5173   -0.2346    0.0000 C   0  0  0  0  0  0  0  0  0  0  0  0
   -4.7966   -0.6448    0.0000 C   0  0  0  0  0  0  0  0  0  0  0  0
   -4.0868   -0.2286    0.0000 C   0  0  0  0  0  0  0  0  0  0  0  0
   -0.5246   -0.6427    0.0000 C   0  0  0  0  0  0  0  0  0  0  0  0
    0.1905   -0.2312    0.0000 C   0  0  0  0  0  0  0  0  0  0  0  0
    0.9043   -0.6448    0.0000 N   0  0  0  0  0  0  0  0  0  0  0  0
    0.1917    0.5938    0.0000 O   0  0  0  0  0  0  0  0  0  0  0  0
    1.6194   -0.2333    0.0000 N   0  0  0  0  0  0  0  0  0  0  0  0
    2.3333   -0.6469    0.0000 C   0  0  0  0  0  0  0  0  0  0  0  0
    3.0484   -0.2354    0.0000 C   0  0  0  0  0  0  0  0  0  0  0  0
    3.7587   -0.6530    0.0000 C   0  0  0  0  0  0  0  0  0  0  0  0
    4.4733   -0.2422    0.0000 C   0  0  0  0  0  0  0  0  0  0  0  0
    4.4750    0.5836    0.0000 C   0  0  0  0  0  0  0  0  0  0  0  0
    3.7561    0.9970    0.0000 C   0  0  0  0  0  0  0  0  0  0  0  0
    3.0444    0.5839    0.0000 C   0  0  0  0  0  0  0  0  0  0  0  0
    2.3285    0.9938    0.0000 O   0  0  0  0  0  0  0  0  0  0  0  0
    3.7543    1.8220    0.0000 C   0  0  0  0  0  0  0  0  0  0  0  0
    3.0390    2.2330    0.0000 C   0  0  0  0  0  0  0  0  0  0  0  0
    2.3254    1.8190    0.0000 C   0  0  0  0  0  0  0  0  0  0  0  0
  4 14  1  0
  1  7  1  0
 14 15  1  0
  1  2  1  0
 15 16  1  0
  7  8  1  0
 15 17  2  0
  1  6  1  0
 16 18  1  0
  8  9  2  0
 18 19  2  0
  2  3  1  0
 19 20  1  0
  9 10  1  0
 20 21  2  0
  3  4  1  0
 21 22  1  0
 10 11  2  0
 22 23  2  0
  4  5  1  0
 23 24  1  0
 11 12  1  0
 24 25  2  0
 25 20  1  0
  5  6  1  0
 25 26  1  0
 12 13  2  0
 24 27  1  0
 13  8  1  0
 27 28  1  0
 28 29  2  0
M  END
> <chembl_id>
CHEMBL591429

> <chembl_pref_name>
PAC-1

$$$$

     RDKit          2D

125134  0  0  0  0  0  0  0  0999 V2000
   11.7297   -3.9790    0.0000 O   0  0  0  0  0  0  0  0  0  0  0  0
   11.3777   -3.2888    0.0000 C   0  0  0  0  0  0  0  0  0  0  0  0
   12.1024   -2.8945    0.0000 N   0  0  0  0  0  0  0  0  0  0  0  0
   12.2943   -2.0921    0.0000 C   0  0  0  0  0  0  0  0  0  0  0  0
   13.1167   -2.0267    0.0000 C   0  0  0  0  0  0  0  0  0  0  0  0
   13.3527   -2.7041    0.0000 C   0  0  0  0  0  0  0  0  0  0  0  0
   14.2584   -2.7413    0.0000 S   0  0  0  0  0  0  0  0  0  0  0  0
   13.7056   -3.5383    0.0000 O   0  0  0  0  0  0  0  0  0  0  0  0
   15.0848   -3.2220    0.0000 O   0  0  0  0  0  0  0  0  0  0  0  0
   14.6726   -1.9161    0.0000 C   0  0  0  0  0  0  0  0  0  0  0  0
   14.2192   -1.2269    0.0000 C   0  0  0  0  0  0  0  0  0  0  0  0
   14.5893   -0.4896    0.0000 N   0  0  0  0  0  0  0  0  0  0  0  0
   14.1359    0.1996    0.0000 C   0  0  0  0  0  0  0  0  0  0  0  0
   14.5060    0.9369    0.0000 C   0  0  0  0  0  0  0  0  0  0  0  0
   15.4129   -0.4415    0.0000 C   0  0  0  0  0  0  0  0  0  0  0  0
   15.7831    0.2958    0.0000 C   0  0  0  0  0  0  0  0  0  0  0  0
   12.8062   -3.3250    0.0000 C   0  0  0  0  0  0  0  0  0  0  0  0
   10.6739   -2.8583    0.0000 C   0  0  0  0  0  0  0  0  0  0  0  0
   10.3449   -2.0651    0.0000 C   0  0  0  0  0  0  0  0  0  0  0  0
    9.5202   -2.0442    0.0000 O   0  0  0  0  0  0  0  0  0  0  0  0
    9.9492   -3.2526    0.0000 N   0  0  0  0  0  0  0  0  0  0  0  0
    9.2455   -2.8221    0.0000 C   0  0  0  0  0  0  0  0  0  0  0  0
    8.5208   -3.2164    0.0000 C   0  0  0  0  0  0  0  0  0  0  0  0
    8.4999   -4.0411    0.0000 C   0  0  0  0  0  0  0  0  0  0  0  0
    9.3100   -4.3748    0.0000 O   0  0  0  0  0  0  0  0  0  0  0  0
    7.7752   -4.4354    0.0000 C   0  0  0  0  0  0  0  0  0  0  0  0
    7.7543   -5.2601    0.0000 C   0  0  0  0  0  0  0  0  0  0  0  0
    7.0133   -5.6649    0.0000 O   0  0  0  0  0  0  0  0  0  0  0  0
    8.4581   -5.6906    0.0000 C   0  0  0  0  0  0  0  0  0  0  0  0
    9.1828   -5.2963    0.0000 C   0  0  0  0  0  0  0  0  0  0  0  0
    8.7185   -4.6444    0.0000 C   0  0  0  0  0  0  0  0  0  0  0  0
    9.8866   -5.7268    0.0000 C   0  0  0  0  0  0  0  0  0  0  0  0
   10.6113   -5.3325    0.0000 C   0  0  0  0  0  0  0  0  0  0  0  0
   11.3151   -5.7630    0.0000 C   0  0  0  0  0  0  0  0  0  0  0  0
   12.0397   -5.3687    0.0000 N   0  0  0  0  0  0  0  0  0  0  0  0
   12.7435   -5.7992    0.0000 C   0  0  0  0  0  0  0  0  0  0  0  0
   12.7925   -6.6502    0.0000 O   0  0  0  0  0  0  0  0  0  0  0  0
   13.5546   -5.4025    0.0000 C   0  0  0  0  0  0  0  0  0  0  0  0
   14.3569   -5.5945    0.0000 C   0  0  0  0  0  0  0  0  0  0  0  0
   14.7874   -4.8907    0.0000 C   0  0  0  0  0  0  0  0  0  0  0  0
   15.6346   -5.2446    0.0000 C   0  0  0  0  0  0  0  0  0  0  0  0
   14.2510   -4.2638    0.0000 C   0  0  0  0  0  0  0  0  0  0  0  0
   15.1322   -3.8906    0.0000 C   0  0  0  0  0  0  0  0  0  0  0  0
   15.7273   -3.0801    0.0000 C   0  0  0  0  0  0  0  0  0  0  0  0
   15.8169   -4.4362    0.0000 C   0  0  0  0  0  0  0  0  0  0  0  0
   14.2347   -3.3611    0.0000 O   0  0  0  0  0  0  0  0  0  0  0  0
   13.5309   -2.9307    0.0000 C   0  0  0  0  0  0  0  0  0  0  0  0
   13.7991   -1.9869    0.0000 O   0  0  0  0  0  0  0  0  0  0  0  0
   13.5877   -2.7011    0.0000 H   0  0  0  0  0  0  0  0  0  0  0  0
    3.1949   -3.4768    0.0000 N   0  0  0  0  0  0  0  0  0  0  0  0
    2.4827   -3.0614    0.0000 C   0  0  0  0  0  0  0  0  0  0  0  0
    1.7706   -1.8249    0.0000 N   0  0  0  0  0  0  0  0  0  0  0  0
    1.0534   -2.2403    0.0000 C   0  0  0  0  0  0  0  0  0  0  0  0
   -0.4995   -1.8249    0.0000 N   0  0  0  0  0  0  0  0  0  0  0  0
    2.4827   -2.2403    0.0000 C   0  0  0  0  0  0  0  0  0  0  0  0
    3.1949   -4.2928    0.0000 C   0  0  0  0  0  0  0  0  0  0  0  0
    1.7706   -4.2928    0.0000 N   0  0  0  0  0  0  0  0  0  0  0  0
   -1.8101   -4.7082    0.0000 C   0  0  0  0  0  0  0  0  0  0  0  0
   -1.2265   -2.2305    0.0000 C   0  0  0  0  0  0  0  0  0  0  0  0
    2.4827   -4.7082    0.0000 C   0  0  0  0  0  0  0  0  0  0  0  0
   -2.6261   -4.2335    0.0000 C   0  0  0  0  0  0  0  0  0  0  0  0
    0.3412   -4.2928    0.0000 C   0  0  0  0  0  0  0  0  0  0  0  0
   -2.5222   -5.9495    0.0000 C   0  0  0  0  0  0  0  0  0  0  0  0
   -2.6508   -2.2107    0.0000 N   0  0  0  0  0  0  0  0  0  0  0  0
   -1.8101   -5.5391    0.0000 N   0  0  0  0  0  0  0  0  0  0  0  0
    0.3314   -1.8249    0.0000 C   0  0  0  0  0  0  0  0  0  0  0  0
   -2.5321   -6.7705    0.0000 C   0  0  0  0  0  0  0  0  0  0  0  0
   -0.3808   -4.7082    0.0000 O   0  0  0  0  0  0  0  0  0  0  0  0
    3.9070   -3.0614    0.0000 C   0  0  0  0  0  0  0  0  0  0  0  0
    1.0534   -4.7082    0.0000 C   0  0  0  0  0  0  0  0  0  0  0  0
    3.9070   -4.7181    0.0000 C   0  0  0  0  0  0  0  0  0  0  0  0
    4.6192   -3.4768    0.0000 C   0  0  0  0  0  0  0  0  0  0  0  0
    4.6192   -4.2928    0.0000 C   0  0  0  0  0  0  0  0  0  0  0  0
   -1.9238   -1.8002    0.0000 C   0  0  0  0  0  0  0  0  0  0  0  0
   -1.0929   -4.2928    0.0000 C   0  0  0  0  0  0  0  0  0  0  0  0
    6.5578   -0.8507    0.0000 N   0  0  0  0  0  0  0  0  0  0  0  0
   -3.2443   -7.1860    0.0000 N   0  0  0  0  0  0  0  0  0  0  0  0
    5.8655   -1.9338    0.0000 C   0  0  0  0  0  0  0  0  0  0  0  0
    5.8655   -2.7596    0.0000 S   0  0  0  0  0  0  0  0  0  0  0  0
    1.7706   -3.4768    0.0000 O   0  0  0  0  0  0  0  0  0  0  0  0
    3.1949   -1.8151    0.0000 C   0  0  0  0  0  0  0  0  0  0  0  0
    1.0534   -3.0614    0.0000 O   0  0  0  0  0  0  0  0  0  0  0  0
    5.4501   -3.4768    0.0000 C   0  0  0  0  0  0  0  0  0  0  0  0
   -1.2314   -3.0564    0.0000 O   0  0  0  0  0  0  0  0  0  0  0  0
    5.7616   -1.1919    0.0000 C   0  0  0  0  0  0  0  0  0  0  0  0
   -3.3481   -4.6439    0.0000 O   0  0  0  0  0  0  0  0  0  0  0  0
    2.4827   -5.5391    0.0000 O   0  0  0  0  0  0  0  0  0  0  0  0
    0.3412   -3.4718    0.0000 O   0  0  0  0  0  0  0  0  0  0  0  0
   -1.8199   -7.1860    0.0000 C   0  0  0  0  0  0  0  0  0  0  0  0
   -3.2443   -5.5391    0.0000 O   0  0  0  0  0  0  0  0  0  0  0  0
    3.1949    0.6528    0.0000 C   0  0  0  0  0  0  0  0  0  0  0  0
    6.6964   -1.5777    0.0000 C   0  0  0  0  0  0  0  0  0  0  0  0
    3.1949    1.4787    0.0000 N   0  0  0  0  0  0  0  0  0  0  0  0
    5.3462   -4.7082    0.0000 O   0  0  0  0  0  0  0  0  0  0  0  0
    1.0534   -5.5391    0.0000 C   0  0  0  0  0  0  0  0  0  0  0  0
    3.9169    0.2374    0.0000 C   0  0  0  0  0  0  0  0  0  0  0  0
    2.4827    0.2374    0.0000 C   0  0  0  0  0  0  0  0  0  0  0  0
    7.4234   -1.9189    0.0000 C   0  0  0  0  0  0  0  0  0  0  0  0
    6.8299   -0.5638    0.0000 C   0  0  0  0  0  0  0  0  0  0  0  0
    7.2750   -1.1721    0.0000 C   0  0  0  0  0  0  0  0  0  0  0  0
    6.5875    0.0297    0.0000 C   0  0  0  0  0  0  0  0  0  0  0  0
   -0.7418   -1.0386    0.0000 C   0  0  0  0  0  0  0  0  0  0  0  0
    1.7706   -0.9990    0.0000 C   0  0  0  0  0  0  0  0  0  0  0  0
    3.1949   -0.9990    0.0000 C   0  0  0  0  0  0  0  0  0  0  0  0
    2.4827   -0.5836    0.0000 C   0  0  0  0  0  0  0  0  0  0  0  0
    3.9169   -0.5836    0.0000 C   0  0  0  0  0  0  0  0  0  0  0  0
    0.5935   -1.0436    0.0000 C   0  0  0  0  0  0  0  0  0  0  0  0
   -1.0979   -6.7656    0.0000 O   0  0  0  0  0  0  0  0  0  0  0  0
   -1.9139   -0.9792    0.0000 C   0  0  0  0  0  0  0  0  0  0  0  0
   -0.0742   -0.5539    0.0000 C   0  0  0  0  0  0  0  0  0  0  0  0
   -1.0929   -3.4718    0.0000 C   0  0  0  0  0  0  0  0  0  0  0  0
   -3.2443   -8.0118    0.0000 C   0  0  0  0  0  0  0  0  0  0  0  0
    2.4827    1.8941    0.0000 C   0  0  0  0  0  0  0  0  0  0  0  0
    3.9070    1.8991    0.0000 C   0  0  0  0  0  0  0  0  0  0  0  0
   -1.8101   -8.0118    0.0000 C   0  0  0  0  0  0  0  0  0  0  0  0
    1.7706   -5.9397    0.0000 C   0  0  0  0  0  0  0  0  0  0  0  0
    0.3314   -5.9397    0.0000 C   0  0  0  0  0  0  0  0  0  0  0  0
   -1.1968   -0.5836    0.0000 C   0  0  0  0  0  0  0  0  0  0  0  0
   -2.5321   -8.4273    0.0000 C   0  0  0  0  0  0  0  0  0  0  0  0
    0.3314   -6.7705    0.0000 C   0  0  0  0  0  0  0  0  0  0  0  0
    1.7706   -6.7705    0.0000 C   0  0  0  0  0  0  0  0  0  0  0  0
    1.0534   -7.1860    0.0000 C   0  0  0  0  0  0  0  0  0  0  0  0
    4.9290   -2.3310    0.0000 H   0  0  0  0  0  0  0  0  0  0  0  0
    1.4412   -1.4040    0.0000 H   0  0  0  0  0  0  0  0  0  0  0  0
    3.1888   -5.4797    0.0000 H   0  0  0  0  0  0  0  0  0  0  0  0
  2  1  2  0
  2  3  1  0
  2 18  1  0
  4  3  1  0
 17  3  1  0
  5  4  1  0
  6  5  1  0
  6  7  1  1
 17  6  1  0
  8  7  2  0
  9  7  2  0
 10  7  1  0
 10 11  1  0
 11 12  1  0
 13 12  1  0
 15 12  1  0
 13 14  1  0
 15 16  1  0
 17 47  1  0
 19 18  2  0
 18 21  1  0
 19 20  1  0
 22 20  1  0
 22 21  2  0
 22 23  1  0
 23 24  1  0
 24 25  2  0
 24 26  1  0
 26 27  1  0
 27 28  1  1
 27 29  1  0
 29 30  2  0
 30 31  1  0
 30 32  1  0
 32 33  2  0
 33 34  1  0
 34 35  1  0
 36 35  1  0
 36 37  2  0
 36 38  1  0
 38 39  2  0
 39 40  1  0
 40 41  1  6
 40 42  1  0
 42 43  1  1
 42 46  1  0
 43 44  1  0
 43 45  1  0
 47 46  1  0
 47 48  2  0
 17 49  1  1
 51 50  1  0
 52 55  1  0
 53 52  1  0
 54 66  1  0
 55 51  1  0
 56 50  1  0
 57 60  1  0
 58 75  1  0
 59 54  1  0
 56 60  1  0
 61 58  1  0
 62 70  1  0
 63 65  1  0
 64 74  1  0
 58 65  1  6
 66 53  1  0
 67 63  1  0
 68 62  1  0
 69 50  1  0
 70 57  1  0
 71 56  1  0
 72 69  1  0
 73 72  1  0
 74 59  1  0
 75 68  1  0
 76 85  1  0
 77 67  2  0
 78 79  1  6
 79 83  1  0
 80 51  2  0
 55 81  1  1
 82 53  2  0
 83 72  1  0
 84 59  2  0
 85 78  1  0
 86 61  2  0
 87 60  2  0
 88 62  2  0
 89 67  1  0
 90 63  2  0
 91 96  2  0
 92 78  1  0
 93 91  1  0
 94 73  2  0
 70 95  1  1
 96106  1  0
 97105  2  0
 98 92  1  0
 99 92  1  0
100 98  1  0
101 99  1  0
102 54  1  0
103 52  1  0
104 81  1  0
105104  1  0
106104  2  0
107 66  1  0
108 89  1  0
 74109  1  6
110107  1  0
 75111  1  1
112 77  1  0
113 93  1  0
114 93  1  0
115 89  2  0
116 95  1  0
117 95  2  0
118109  1  0
119115  1  0
120117  1  0
121116  2  0
122120  2  0
 72123  1  6
 66124  1  6
 73 71  1  0
 91 97  1  0
110102  1  0
101 76  1  0
100 76  1  0
122121  1  0
 61 64  1  0
119112  2  0
 56125  1  6
M  END
> <chembl_id>
CHEMBL3137691

> <chembl_pref_name>
QUINUPRISTIN/DALFOPRISTIN

$$$$

     RDKit          2D

 72 81  0  0  0  0  0  0  0  0999 V2000
   -8.8909  -18.6509    0.0000 C   0  0  0  0  0  0  0  0  0  0  0  0
   -8.8909  -17.8259    0.0000 C   0  0  0  0  0  0  0  0  0  0  0  0
   -9.6054  -17.4134    0.0000 C   0  0  0  0  0  0  0  0  0  0  0  0
  -10.3198  -17.8259    0.0000 N   0  0  0  0  0  0  0  0  0  0  0  0
  -10.3198  -18.6509    0.0000 C   0  0  0  0  0  0  0  0  0  0  0  0
   -9.6053  -19.0634    0.0000 C   0  0  0  0  0  0  0  0  0  0  0  0
   -8.1764  -17.4134    0.0000 C   0  0  0  0  0  0  0  0  0  0  0  0
   -7.4619  -17.8258    0.0000 O   0  0  0  0  0  0  0  0  0  0  0  0
   -7.4619  -18.6508    0.0000 C   0  0  0  0  0  0  0  0  0  0  0  0
   -8.1764  -19.0634    0.0000 C   0  0  0  0  0  0  0  0  0  0  0  0
  -11.1044  -18.9058    0.0000 C   0  0  0  0  0  0  0  0  0  0  0  0
  -11.5894  -18.2384    0.0000 C   0  0  0  0  0  0  0  0  0  0  0  0
  -11.1045  -17.5710    0.0000 C   0  0  0  0  0  0  0  0  0  0  0  0
  -12.4098  -18.3247    0.0000 C   0  0  0  0  0  0  0  0  0  0  0  0
  -12.7454  -19.0783    0.0000 C   0  0  0  0  0  0  0  0  0  0  0  0
  -12.2605  -19.7458    0.0000 C   0  0  0  0  0  0  0  0  0  0  0  0
  -11.4400  -19.6595    0.0000 N   0  0  0  0  0  0  0  0  0  0  0  0
  -13.5659  -19.1646    0.0000 C   0  0  0  0  0  0  0  0  0  0  0  0
  -13.9014  -19.9183    0.0000 C   0  0  0  0  0  0  0  0  0  0  0  0
  -13.4165  -20.5857    0.0000 C   0  0  0  0  0  0  0  0  0  0  0  0
  -12.5960  -20.4994    0.0000 C   0  0  0  0  0  0  0  0  0  0  0  0
   -7.5930  -19.6467    0.0000 O   0  0  0  0  0  0  0  0  0  0  0  0
   -7.5930  -20.4717    0.0000 C   0  0  0  0  0  0  0  0  0  0  0  0
   -8.1764  -19.8884    0.0000 C   0  0  0  0  0  0  0  0  0  0  0  0
   -8.9733  -20.1019    0.0000 C   0  0  0  0  0  0  0  0  0  0  0  0
   -6.8785  -20.8842    0.0000 C   0  0  0  0  0  0  0  0  0  0  0  0
   -8.3075  -20.8842    0.0000 O   0  0  0  0  0  0  0  0  0  0  0  0
   -6.8785  -21.7092    0.0000 N   0  0  0  0  0  0  0  0  0  0  0  0
   -6.1641  -20.4717    0.0000 C   0  0  0  0  0  0  0  0  0  0  0  0
   -6.1641  -22.1217    0.0000 C   0  0  0  0  0  0  0  0  0  0  0  0
   -6.1641  -22.9467    0.0000 O   0  0  0  0  0  0  0  0  0  0  0  0
   -5.4496  -21.7092    0.0000 C   0  0  0  0  0  0  0  0  0  0  0  0
   -4.7351  -22.1217    0.0000 O   0  0  0  0  0  0  0  0  0  0  0  0
   -4.0207  -21.7092    0.0000 C   0  0  0  0  0  0  0  0  0  0  0  0
   -3.3062  -22.1217    0.0000 C   0  0  0  0  0  0  0  0  0  0  0  0
   -2.5917  -21.7092    0.0000 O   0  0  0  0  0  0  0  0  0  0  0  0
   -1.8773  -22.1217    0.0000 C   0  0  0  0  0  0  0  0  0  0  0  0
   -1.1628  -21.7092    0.0000 C   0  0  0  0  0  0  0  0  0  0  0  0
   -0.4483  -22.1217    0.0000 N   0  0  0  0  0  0  0  0  0  0  0  0
   -1.1628  -20.8842    0.0000 O   0  0  0  0  0  0  0  0  0  0  0  0
    0.2662  -21.7092    0.0000 C   0  0  0  0  0  0  0  0  0  0  0  0
    0.2662  -20.8842    0.0000 C   0  0  0  0  0  0  0  0  0  0  0  0
    0.9806  -20.4717    0.0000 O   0  0  0  0  0  0  0  0  0  0  0  0
   -0.4483  -20.4717    0.0000 O   0  0  0  0  0  0  0  0  0  0  0  0
    0.9806  -19.6467    0.0000 C   0  0  0  0  0  0  0  0  0  0  0  0
    0.9806  -22.1217    0.0000 C   0  0  0  0  0  0  0  0  0  0  0  0
    1.6951  -19.2342    0.0000 C   0  0  0  0  0  0  0  0  0  0  0  0
    1.6951  -18.4092    0.0000 O   0  0  0  0  0  0  0  0  0  0  0  0
    0.9806  -17.9967    0.0000 C   0  0  0  0  0  0  0  0  0  0  0  0
    0.2662  -18.4092    0.0000 C   0  0  0  0  0  0  0  0  0  0  0  0
    0.2662  -19.2342    0.0000 C   0  0  0  0  0  0  0  0  0  0  0  0
   -0.4483  -17.9967    0.0000 C   0  0  0  0  0  0  0  0  0  0  0  0
   -1.1628  -18.4092    0.0000 N   0  0  0  0  0  0  0  0  0  0  0  0
   -1.1628  -19.2342    0.0000 C   0  0  0  0  0  0  0  0  0  0  0  0
   -0.4483  -19.6467    0.0000 C   0  0  0  0  0  0  0  0  0  0  0  0
   -1.9474  -19.4891    0.0000 C   0  0  0  0  0  0  0  0  0  0  0  0
   -2.4323  -18.8217    0.0000 C   0  0  0  0  0  0  0  0  0  0  0  0
   -1.9474  -18.1543    0.0000 C   0  0  0  0  0  0  0  0  0  0  0  0
   -3.2528  -18.9079    0.0000 C   0  0  0  0  0  0  0  0  0  0  0  0
   -3.5884  -19.6616    0.0000 C   0  0  0  0  0  0  0  0  0  0  0  0
   -3.1034  -20.3290    0.0000 C   0  0  0  0  0  0  0  0  0  0  0  0
   -2.2829  -20.2428    0.0000 N   0  0  0  0  0  0  0  0  0  0  0  0
   -4.4089  -19.7479    0.0000 C   0  0  0  0  0  0  0  0  0  0  0  0
   -4.7444  -20.5015    0.0000 C   0  0  0  0  0  0  0  0  0  0  0  0
   -4.2595  -21.1690    0.0000 C   0  0  0  0  0  0  0  0  0  0  0  0
   -3.4390  -21.0827    0.0000 C   0  0  0  0  0  0  0  0  0  0  0  0
   -0.4483  -17.1717    0.0000 O   0  0  0  0  0  0  0  0  0  0  0  0
    2.4096  -19.6467    0.0000 O   0  0  0  0  0  0  0  0  0  0  0  0
   -9.6054  -16.5884    0.0000 O   0  0  0  0  0  0  0  0  0  0  0  0
   -6.7474  -19.0633    0.0000 O   0  0  0  0  0  0  0  0  0  0  0  0
    1.6951  -20.0592    0.0000 C   0  0  0  0  0  0  0  0  0  0  0  0
    1.6951  -20.8842    0.0000 C   0  0  0  0  0  0  0  0  0  0  0  0
  6  1  1  0
  2  3  1  0
  3  4  1  0
  5  6  2  0
 10  1  1  0
  1  2  2  0
  2  7  1  0
  7  8  1  0
  8  9  1  0
  9 10  1  0
  4 13  1  0
  4  5  1  0
  5 11  1  0
 12 13  1  0
 17 11  2  0
 11 12  1  0
 12 14  2  0
 14 15  1  0
 16 17  1  0
 15 18  1  0
 16 15  2  0
 21 16  1  0
 18 19  2  0
 19 20  1  0
 20 21  2  0
 10 22  1  1
 22 23  1  0
 10 24  1  0
 24 25  1  0
 23 26  1  0
 23 27  2  0
 26 28  1  0
 26 29  1  6
 28 30  1  0
 30 31  2  0
 30 32  1  0
 32 33  1  0
 33 34  1  0
 34 35  1  0
 35 36  1  0
 36 37  1  0
 37 38  1  0
 38 39  1  0
 38 40  2  0
 39 41  1  0
 41 42  1  0
 42 43  1  0
 42 44  2  0
 43 45  1  0
 41 46  1  6
 45 47  1  0
 51 45  1  0
 47 48  1  0
 48 49  1  0
 49 50  1  0
 50 52  1  0
 51 50  2  0
 55 51  1  0
 52 53  1  0
 54 55  2  0
 54 56  1  0
 53 54  1  0
 53 58  1  0
 57 58  1  0
 62 56  2  0
 56 57  1  0
 57 59  2  0
 59 60  1  0
 61 62  1  0
 60 63  1  0
 61 60  2  0
 66 61  1  0
 63 64  2  0
 64 65  1  0
 65 66  2  0
 52 67  2  0
 47 68  2  0
  3 69  2  0
  9 70  2  0
 45 71  1  6
 71 72  1  0
M  END
> <chembl_id>
CHEMBL3989476

> <chembl_pref_name>
PEGAMOTECAN

$$$$

     RDKit          2D

 20 23  0  0  0  0  0  0  0  0999 V2000
    5.0792   -4.6167    0.0000 N   0  0  0  0  0  0  0  0  0  0  0  0
    4.4417   -4.9375    0.0000 C   0  0  0  0  0  0  0  0  0  0  0  0
    5.6792   -4.9417    0.0000 C   0  0  0  0  0  0  0  0  0  0  0  0
    5.3917   -6.1542    0.0000 N   0  0  0  0  0  0  0  0  0  0  0  0
    4.2792   -5.5917    0.0000 C   0  0  0  0  0  0  0  0  0  0  0  0
    4.7000   -6.1542    0.0000 C   0  0  0  0  0  0  0  0  0  0  0  0
    5.8375   -5.6042    0.0000 C   0  0  0  0  0  0  0  0  0  0  0  0
    5.0792   -3.9292    0.0000 C   0  0  0  0  0  0  0  0  0  0  0  0
    6.2500   -4.4667    0.0000 N   0  0  0  0  0  0  0  0  0  0  0  0
    4.7625   -3.2542    0.0000 C   0  0  0  0  0  0  0  0  0  0  0  0
    5.4500   -3.2417    0.0000 C   0  0  0  0  0  0  0  0  0  0  0  0
    3.9250   -4.4292    0.0000 N   0  0  0  0  0  0  0  0  0  0  0  0
    4.3792   -6.7792    0.0000 O   0  0  0  0  0  0  0  0  0  0  0  0
    6.5167   -5.8500    0.0000 C   0  0  0  0  0  0  0  0  0  0  0  0
    3.5875   -5.7792    0.0000 C   0  0  0  0  0  0  0  0  0  0  0  0
    6.9250   -4.7000    0.0000 C   0  0  0  0  0  0  0  0  0  0  0  0
    3.2417   -4.6167    0.0000 C   0  0  0  0  0  0  0  0  0  0  0  0
    7.0667   -5.3750    0.0000 C   0  0  0  0  0  0  0  0  0  0  0  0
    6.6792   -6.5417    0.0000 C   0  0  0  0  0  0  0  0  0  0  0  0
    3.0792   -5.2917    0.0000 C   0  0  0  0  0  0  0  0  0  0  0  0
  2  1  1  0
  3  1  1  0
  4  7  1  0
  5  2  2  0
  6  5  1  0
  7  3  2  0
  8  1  1  0
  9  3  1  0
 10  8  1  0
 11  8  1  0
 12  2  1  0
 13  6  2  0
 14  7  1  0
 15  5  1  0
 16  9  2  0
 17 12  2  0
 18 16  1  0
 19 14  1  0
 20 17  1  0
 11 10  1  0
  6  4  1  0
 18 14  2  0
 20 15  2  0
M  END
> <chembl_id>
CHEMBL57

> <chembl_pref_name>
NEVIRAPINE

$$$$

     RDKit          2D

138151  0  0  1  0  0  0  0  0999 V2000
    2.1708   -6.2500    0.0000 C   0  0  0  0  0  0  0  0  0  0  0  0
    1.4542   -5.8375    0.0000 Cl  0  0  0  0  0  0  0  0  0  0  0  0
    0.7500   -8.7250    0.0000 O   0  0  0  0  0  0  0  0  0  0  0  0
    0.7542   -9.5500    0.0000 C   0  0  0  0  0  0  0  0  0  0  0  0
    2.1750   -7.0712    0.0000 C   0  0  0  0  0  0  0  0  0  0  0  0
    2.9609   -7.3222    0.0000 N   0  0  0  0  0  0  0  0  0  0  0  0
    3.4425   -6.6523    0.0000 C   0  0  0  0  0  0  0  0  0  0  0  0
    2.9542   -5.9874    0.0000 S   0  0  0  0  0  0  0  0  0  0  0  0
    0.7417   -7.0750    0.0000 C   0  0  0  0  0  0  0  0  0  0  0  0
    1.4583   -7.4833    0.0000 C   0  0  0  0  0  0  0  0  0  0  0  0
    0.7458   -6.2500    0.0000 O   0  0  0  0  0  0  0  0  0  0  0  0
   -2.2370   -5.8292    0.0000 C   0  0  0  0  0  0  0  0  0  0  0  0
   -2.9490   -6.2375    0.0000 C   0  0  0  0  0  0  0  0  0  0  0  0
   -2.9490   -7.0625    0.0000 C   0  0  0  0  0  0  0  0  0  0  0  0
   -2.2370   -7.4792    0.0000 S   0  0  0  0  0  0  0  0  0  0  0  0
   -1.5250   -6.2375    0.0000 N   0  0  0  0  0  0  0  0  0  0  0  0
   -1.5250   -7.0671    0.0000 C   0  0  0  0  0  0  0  0  0  0  0  0
   -0.6955   -7.0671    0.0000 C   0  0  0  0  0  0  0  0  0  0  0  0
   -0.6954   -6.2375    0.0000 C   0  0  0  0  0  0  0  0  0  0  0  0
   -3.6583   -5.8250    0.0000 C   0  0  0  0  0  0  0  0  0  0  0  0
   -2.2292   -5.0042    0.0000 C   0  0  0  0  0  0  0  0  0  0  0  0
   -1.5125   -4.5958    0.0000 O   0  0  0  0  0  0  0  0  0  0  0  0
   -2.9417   -4.5917    0.0000 O   0  0  0  0  0  0  0  0  0  0  0  0
   -0.1042   -5.6583    0.0000 O   0  0  0  0  0  0  0  0  0  0  0  0
   -1.5208   -7.8958    0.0000 H   0  0  0  0  0  0  0  0  0  0  0  0
    0.0250   -7.4833    0.0000 N   0  0  0  0  0  0  0  0  0  0  0  0
    4.2708   -6.6583    0.0000 N   0  0  0  0  0  0  0  0  0  0  0  0
    1.4625   -8.3083    0.0000 N   0  0  0  0  0  0  0  0  0  0  0  0
   -4.3708   -6.2417    0.0000 N   0  0  0  0  0  0  0  0  0  0  0  0
   -5.7953   -7.0722    0.0000 C   0  0  0  0  0  0  0  0  0  0  0  0
   -5.0732   -7.4808    0.0000 C   0  0  0  0  0  0  0  0  0  0  0  0
   -4.3642   -7.0624    0.0000 C   0  0  0  0  0  0  0  0  0  0  0  0
   -5.7995   -6.2460    0.0000 C   0  0  0  0  0  0  0  0  0  0  0  0
   -5.0893   -5.8269    0.0000 C   0  0  0  0  0  0  0  0  0  0  0  0
    1.4708   -9.9542    0.0000 C   0  0  0  0  0  0  0  0  0  0  0  0
    1.4875  -11.7250    0.0000 C   0  0  0  0  0  0  0  0  0  0  0  0
    2.2042  -12.1292    0.0000 N   0  0  0  0  0  0  0  0  0  0  0  0
    4.3458  -13.3667    0.0000 C   0  0  0  0  0  0  0  0  0  0  0  0
    3.6375  -12.9458    0.0000 C   0  0  0  0  0  0  0  0  0  0  0  0
    3.6333  -12.1167    0.0000 C   0  0  0  0  0  0  0  0  0  0  0  0
    4.3458  -14.1875    0.0000 C   0  0  0  0  0  0  0  0  0  0  0  0
    3.6333  -14.5958    0.0000 C   0  0  0  0  0  0  0  0  0  0  0  0
    2.9208  -13.3542    0.0000 C   0  0  0  0  0  0  0  0  0  0  0  0
    2.9166  -14.1792    0.0000 C   0  0  0  0  0  0  0  0  0  0  0  0
    5.0583  -14.6000    0.0000 O   0  0  0  0  0  0  0  0  0  0  0  0
    2.2000  -14.5875    0.0000 O   0  0  0  0  0  0  0  0  0  0  0  0
    4.3375  -11.7000    0.0000 N   0  0  0  0  0  0  0  0  0  0  0  0
    4.3292  -10.1083    0.0000 C   0  0  0  0  0  0  0  0  0  0  0  0
    5.0375   -9.6958    0.0000 C   0  0  0  0  0  0  0  0  0  0  0  0
    3.6175   -9.7016    0.0000 O   0  0  0  0  0  0  0  0  0  0  0  0
   13.5916   -9.6708    0.0000 C   0  0  0  0  0  0  0  0  0  0  0  0
    5.7541  -10.1083    0.0000 N   0  0  0  0  0  0  0  0  0  0  0  0
    9.3374   -4.3666    0.0000 C   0  0  0  0  0  0  0  0  0  0  0  0
    9.7457   -5.0875    0.0000 C   0  0  0  0  0  0  0  0  0  0  0  0
    7.8916   -9.6875    0.0000 N   0  0  0  0  0  0  0  0  0  0  0  0
   10.0291  -10.0958    0.0000 N   0  0  0  0  0  0  0  0  0  0  0  0
   12.8791  -10.0875    0.0000 C   0  0  0  0  0  0  0  0  0  0  0  0
    6.4666   -9.6875    0.0000 C   0  0  0  0  0  0  0  0  0  0  0  0
    8.6041  -10.1000    0.0000 C   0  0  0  0  0  0  0  0  0  0  0  0
    9.3291   -6.6250    0.0000 C   0  0  0  0  0  0  0  0  0  0  0  0
    9.7582   -3.6500    0.0000 C   0  0  0  0  0  0  0  0  0  0  0  0
   12.1666   -9.6750    0.0000 N   0  0  0  0  0  0  0  0  0  0  0  0
    9.3166   -9.6833    0.0000 C   0  0  0  0  0  0  0  0  0  0  0  0
   14.3041  -10.0833    0.0000 N   0  0  0  0  0  0  0  0  0  0  0  0
    8.6166   -7.0375    0.0000 C   0  0  0  0  0  0  0  0  0  0  0  0
   10.0374   -7.0333    0.0000 C   0  0  0  0  0  0  0  0  0  0  0  0
   10.7416   -9.6750    0.0000 C   0  0  0  0  0  0  0  0  0  0  0  0
    7.1791  -10.1000    0.0000 C   0  0  0  0  0  0  0  0  0  0  0  0
   10.5707   -5.0916    0.0000 O   0  0  0  0  0  0  0  0  0  0  0  0
    9.3249   -5.8000    0.0000 O   0  0  0  0  0  0  0  0  0  0  0  0
    8.0874   -2.2000    0.0000 C   0  0  0  0  0  0  0  0  0  0  0  0
    9.3249   -8.2708    0.0000 C   0  0  0  0  0  0  0  0  0  0  0  0
   10.5874   -3.6625    0.0000 C   0  0  0  0  0  0  0  0  0  0  0  0
    7.9041   -6.6250    0.0000 O   0  0  0  0  0  0  0  0  0  0  0  0
   10.7499   -6.6125    0.0000 O   0  0  0  0  0  0  0  0  0  0  0  0
   11.4541  -10.0875    0.0000 C   0  0  0  0  0  0  0  0  0  0  0  0
    8.0916   -3.6375    0.0000 C   0  0  0  0  0  0  0  0  0  0  0  0
   15.0166   -9.6625    0.0000 C   0  0  0  0  0  0  0  0  0  0  0  0
   10.9916   -4.3833    0.0000 C   0  0  0  0  0  0  0  0  0  0  0  0
    5.0499   -8.2750    0.0000 C   0  0  0  0  0  0  0  0  0  0  0  0
   13.5916   -8.2625    0.0000 C   0  0  0  0  0  0  0  0  0  0  0  0
    8.5041   -2.9166    0.0000 C   0  0  0  0  0  0  0  0  0  0  0  0
    7.2582   -3.6458    0.0000 O   0  0  0  0  0  0  0  0  0  0  0  0
    7.1791  -10.9250    0.0000 C   0  0  0  0  0  0  0  0  0  0  0  0
    7.2541   -2.2041    0.0000 C   0  0  0  0  0  0  0  0  0  0  0  0
   11.4541  -11.2708    0.0000 C   0  0  0  0  0  0  0  0  0  0  0  0
    5.7666   -7.8708    0.0000 C   0  0  0  0  0  0  0  0  0  0  0  0
   12.8832   -7.8541    0.0000 C   0  0  0  0  0  0  0  0  0  0  0  0
    8.5082   -4.3583    0.0000 O   0  0  0  0  0  0  0  0  0  0  0  0
   10.0416   -7.8625    0.0000 C   0  0  0  0  0  0  0  0  0  0  0  0
    8.6166   -7.8583    0.0000 C   0  0  0  0  0  0  0  0  0  0  0  0
    7.1957   -7.0416    0.0000 C   0  0  0  0  0  0  0  0  0  0  0  0
   11.4624   -7.0250    0.0000 C   0  0  0  0  0  0  0  0  0  0  0  0
    6.8416   -2.9250    0.0000 C   0  0  0  0  0  0  0  0  0  0  0  0
   12.1707   -6.6166    0.0000 C   0  0  0  0  0  0  0  0  0  0  0  0
    6.4791   -6.6291    0.0000 C   0  0  0  0  0  0  0  0  0  0  0  0
   10.7374  -11.6750    0.0000 C   0  0  0  0  0  0  0  0  0  0  0  0
   12.8791   -7.0250    0.0000 C   0  0  0  0  0  0  0  0  0  0  0  0
    5.7666   -7.0458    0.0000 C   0  0  0  0  0  0  0  0  0  0  0  0
   15.7291  -10.0750    0.0000 C   0  0  0  0  0  0  0  0  0  0  0  0
   12.8791  -10.9125    0.0000 O   0  0  0  0  0  0  0  0  0  0  0  0
    8.6041  -10.9250    0.0000 O   0  0  0  0  0  0  0  0  0  0  0  0
    6.4666   -8.8625    0.0000 O   0  0  0  0  0  0  0  0  0  0  0  0
   10.7416   -8.8500    0.0000 O   0  0  0  0  0  0  0  0  0  0  0  0
   15.0166   -8.8375    0.0000 O   0  0  0  0  0  0  0  0  0  0  0  0
    6.4791   -8.2833    0.0000 C   0  0  0  0  0  0  0  0  0  0  0  0
   12.1666   -8.2625    0.0000 C   0  0  0  0  0  0  0  0  0  0  0  0
    7.1957   -7.8708    0.0000 C   0  0  0  0  0  0  0  0  0  0  0  0
   11.4582   -7.8500    0.0000 C   0  0  0  0  0  0  0  0  0  0  0  0
   10.7291  -12.5000    0.0000 O   0  0  0  0  0  0  0  0  0  0  0  0
   15.7291  -10.9000    0.0000 C   0  0  0  0  0  0  0  0  0  0  0  0
    8.0791   -1.3750    0.0000 N   0  0  0  0  0  0  0  0  0  0  0  0
    9.3499   -2.9333    0.0000 O   0  0  0  0  0  0  0  0  0  0  0  0
   11.0041   -2.9500    0.0000 O   0  0  0  0  0  0  0  0  0  0  0  0
   10.0166  -11.2625    0.0000 N   0  0  0  0  0  0  0  0  0  0  0  0
   16.4416   -9.6625    0.0000 N   0  0  0  0  0  0  0  0  0  0  0  0
    6.8374   -1.4875    0.0000 O   0  0  0  0  0  0  0  0  0  0  0  0
    6.4749   -5.8000    0.0000 Cl  0  0  0  0  0  0  0  0  0  0  0  0
    4.3291   -7.8625    0.0000 O   0  0  0  0  0  0  0  0  0  0  0  0
   12.1666   -5.7875    0.0000 Cl  0  0  0  0  0  0  0  0  0  0  0  0
   14.3041   -7.8500    0.0000 O   0  0  0  0  0  0  0  0  0  0  0  0
   11.8166   -4.3875    0.0000 C   0  0  0  0  0  0  0  0  0  0  0  0
    8.9124   -2.2000    0.0000 C   0  0  0  0  0  0  0  0  0  0  0  0
   12.1041   -3.6125    0.0000 O   0  0  0  0  0  0  0  0  0  0  0  0
    6.0166   -2.9208    0.0000 C   0  0  0  0  0  0  0  0  0  0  0  0
   16.4416  -11.3125    0.0000 C   0  0  0  0  0  0  0  0  0  0  0  0
   17.1541  -10.0750    0.0000 C   0  0  0  0  0  0  0  0  0  0  0  0
   17.1541  -10.9000    0.0000 C   0  0  0  0  0  0  0  0  0  0  0  0
   16.4374  -12.1375    0.0000 C   0  0  0  0  0  0  0  0  0  0  0  0
    8.7499   -4.9500    0.0000 H   0  0  0  0  0  0  0  0  0  0  0  0
    2.9125  -11.7125    0.0000 C   0  0  0  0  0  0  0  0  0  0  0  0
    2.9040  -10.8907    0.0000 O   0  0  0  0  0  0  0  0  0  0  0  0
    6.4624  -11.3357    0.0000 C   0  0  0  0  0  0  0  0  0  0  0  0
    6.4620  -12.1599    0.0000 C   0  0  0  0  0  0  0  0  0  0  0  0
    7.1770  -12.5732    0.0000 C   0  0  0  0  0  0  0  0  0  0  0  0
    7.8939  -12.1563    0.0000 C   0  0  0  0  0  0  0  0  0  0  0  0
    7.8907  -11.3334    0.0000 C   0  0  0  0  0  0  0  0  0  0  0  0
    7.1781  -13.3991    0.0000 O   0  0  0  0  0  0  0  0  0  0  0  0
 19 16  1  0
  9 11  2  0
 13 20  1  0
 38 39  2  0
 39 40  1  0
 41 38  1  0
 42 44  1  0
 43 39  1  0
 44 43  2  0
 45 41  1  0
 46 44  1  0
 41 42  2  0
 17 15  1  0
 40 47  1  0
 16 12  1  0
 47 48  1  0
 12 13  2  0
 48 49  1  0
 13 14  1  0
 48 50  2  0
 14 15  1  0
 16 17  1  0
 28  3  1  0
 29 34  2  0
 33 30  2  0
  3  4  1  0
 30 31  1  0
 12 21  1  0
 31 32  2  0
 32 29  1  0
 33 34  1  0
 10  5  1  0
  5  6  1  0
  6  7  2  0
  7 27  1  0
  7  8  1  0
  8  1  1  0
  1  5  2  0
 21 22  2  0
  9 10  1  0
 21 23  1  0
 19 24  2  0
  4 35  1  0
  1  2  1  0
 35 36  1  0
 51 57  1  0
 49 52  1  6
 53 54  1  0
 54 70  1  1
 55 68  1  0
 63 56  1  1
 57 62  1  0
 58 52  1  0
 59 55  1  0
 60 65  1  0
 61 53  1  0
 76 62  1  1
 63 59  1  0
 51 64  1  1
 65 74  1  0
 66 90  1  0
 67 56  1  0
 68 58  1  6
 69 54  1  0
 70 60  1  0
 71 82  1  0
 72 63  1  0
 73 61  1  0
 74 92  1  0
 75 66  1  0
 76 67  1  0
 77 89  1  6
 78 64  1  0
 79 69  1  0
 80 49  1  0
 81 51  1  0
 82 77  1  0
 83 77  1  0
 84 68  1  0
 85 94  1  0
 86 76  1  0
 87 80  1  0
 88 81  1  0
 89 53  1  0
 90 72  2  0
 91 72  1  0
 92108  1  0
 93 75  1  0
 94 83  1  0
 95 93  1  0
 96 99  1  0
 97 86  1  0
 98 95  2  0
 99 87  2  0
100 78  1  0
101 57  2  0
102 59  2  0
103 58  2  0
104 67  2  0
105 78  2  0
106 87  1  0
107109  1  0
108106  2  0
109 93  2  0
110 97  2  0
111100  1  0
 71112  1  1
 61113  1  1
 73114  1  6
115 97  1  0
100116  1  6
 85117  1  1
118 96  1  0
 80119  1  6
120 95  1  0
 81121  1  1
 79122  1  1
 71123  1  6
124122  1  0
 94125  1  1
126111  1  0
127116  1  0
128126  1  0
129126  1  0
 53130  1  1
 96 92  2  0
 91 65  2  0
 60 66  2  0
 79 73  1  0
 98 88  1  0
 88107  2  0
 85 71  1  0
 17 25  1  6
 40131  1  1
131 37  1  0
 36 37  1  0
131132  2  0
 10 28  2  0
 84133  2  0
 17 18  1  0
133134  1  0
 18 26  1  1
134135  2  0
 26  9  1  0
135136  1  0
 20 29  1  0
136137  2  0
137 84  1  0
 18 19  1  0
135138  1  0
 38134  1  0
M  CHG  2  23  -1  29   1
M  END
> <chembl_id>
CHEMBL4297645

> <chembl_pref_name>
CEFILAVANCIN

$$$$

     RDKit          2D

133145  0  0  0  0  0  0  0  0999 V2000
    4.1136   -9.2676    0.0000 C   0  0  0  0  0  0  0  0  0  0  0  0
    3.6210   -9.9433    0.0000 C   0  0  0  0  0  0  0  0  0  0  0  0
    3.9925  -10.6912    0.0000 C   0  0  0  0  0  0  0  0  0  0  0  0
    4.8301  -10.7605    0.0000 C   0  0  0  0  0  0  0  0  0  0  0  0
    5.2938  -10.0596    0.0000 C   0  0  0  0  0  0  0  0  0  0  0  0
    4.9489   -9.3019    0.0000 C   0  0  0  0  0  0  0  0  0  0  0  0
    2.8386   -9.6235    0.0000 O   0  0  0  0  0  0  0  0  0  0  0  0
    3.5293  -11.3739    0.0000 O   0  0  0  0  0  0  0  0  0  0  0  0
    5.3530  -11.4225    0.0000 O   0  0  0  0  0  0  0  0  0  0  0  0
    5.5192   -8.6674    0.0000 C   0  0  0  0  0  0  0  0  0  0  0  0
    6.3536   -8.5494    0.0000 C   0  0  0  0  0  0  0  0  0  0  0  0
    5.2144   -7.8811    0.0000 N   0  0  0  0  0  0  0  0  0  0  0  0
    5.1338   -7.0492    0.0000 C   0  0  0  0  0  0  0  0  0  0  0  0
    5.0629   -6.2105    0.0000 C   0  0  0  0  0  0  0  0  0  0  0  0
    4.3122   -7.1238    0.0000 O   0  0  0  0  0  0  0  0  0  0  0  0
    4.2427   -6.0102    0.0000 N   0  0  0  0  0  0  0  0  0  0  0  0
    5.8312   -5.8336    0.0000 C   0  0  0  0  0  0  0  0  0  0  0  0
    6.5516   -6.2630    0.0000 C   0  0  0  0  0  0  0  0  0  0  0  0
    7.2883   -5.8818    0.0000 C   0  0  0  0  0  0  0  0  0  0  0  0
    7.3239   -5.0535    0.0000 C   0  0  0  0  0  0  0  0  0  0  0  0
    6.6268   -4.5946    0.0000 C   0  0  0  0  0  0  0  0  0  0  0  0
    5.8919   -4.9992    0.0000 C   0  0  0  0  0  0  0  0  0  0  0  0
    3.4108   -6.1328    0.0000 C   0  0  0  0  0  0  0  0  0  0  0  0
    2.6007   -5.8700    0.0000 C   0  0  0  0  0  0  0  0  0  0  0  0
    3.3419   -6.9549    0.0000 O   0  0  0  0  0  0  0  0  0  0  0  0
    2.7201   -5.0211    0.0000 N   0  0  0  0  0  0  0  0  0  0  0  0
    2.0078   -6.4982    0.0000 C   0  0  0  0  0  0  0  0  0  0  0  0
    1.8526   -7.3496    0.0000 C   0  0  0  0  0  0  0  0  0  0  0  0
    2.6415   -7.6250    0.0000 C   0  0  0  0  0  0  0  0  0  0  0  0
    2.8315   -8.4270    0.0000 C   0  0  0  0  0  0  0  0  0  0  0  0
    2.2400   -9.0173    0.0000 C   0  0  0  0  0  0  0  0  0  0  0  0
    1.4361   -8.7669    0.0000 C   0  0  0  0  0  0  0  0  0  0  0  0
    1.2557   -7.9481    0.0000 C   0  0  0  0  0  0  0  0  0  0  0  0
    2.7065  -11.3140    0.0000 C   0  0  0  0  0  0  0  0  0  0  0  0
    2.2433  -11.9967    0.0000 C   0  0  0  0  0  0  0  0  0  0  0  0
    1.4204  -11.9369    0.0000 C   0  0  0  0  0  0  0  0  0  0  0  0
    1.0608  -11.1944    0.0000 C   0  0  0  0  0  0  0  0  0  0  0  0
    1.5240  -10.5117    0.0000 C   0  0  0  0  0  0  0  0  0  0  0  0
    2.3469  -10.5715    0.0000 O   0  0  0  0  0  0  0  0  0  0  0  0
    2.6029  -12.7392    0.0000 N   0  0  0  0  0  0  0  0  0  0  0  0
    0.9572  -12.6196    0.0000 O   0  0  0  0  0  0  0  0  0  0  0  0
    0.2380  -11.1346    0.0000 O   0  0  0  0  0  0  0  0  0  0  0  0
    1.1644   -9.7692    0.0000 C   0  0  0  0  0  0  0  0  0  0  0  0
    1.6277   -9.0865    0.0000 O   0  0  0  0  0  0  0  0  0  0  0  0
    0.3416   -9.7094    0.0000 O   0  0  0  0  0  0  0  0  0  0  0  0
    2.1396  -13.4219    0.0000 C   0  0  0  0  0  0  0  0  0  0  0  0
    2.4992  -14.1644    0.0000 C   0  0  0  0  0  0  0  0  0  0  0  0
    1.3168  -13.3621    0.0000 O   0  0  0  0  0  0  0  0  0  0  0  0
    2.0360  -14.8471    0.0000 C   0  0  0  0  0  0  0  0  0  0  0  0
    2.3956  -15.5896    0.0000 C   0  0  0  0  0  0  0  0  0  0  0  0
    1.9324  -16.2723    0.0000 C   0  0  0  0  0  0  0  0  0  0  0  0
    2.2920  -17.0148    0.0000 C   0  0  0  0  0  0  0  0  0  0  0  0
    1.8288  -17.6974    0.0000 C   0  0  0  0  0  0  0  0  0  0  0  0
    1.0060  -17.6376    0.0000 C   0  0  0  0  0  0  0  0  0  0  0  0
    0.6464  -16.8951    0.0000 C   0  0  0  0  0  0  0  0  0  0  0  0
   -0.1765  -16.8353    0.0000 C   0  0  0  0  0  0  0  0  0  0  0  0
   -0.5361  -16.0928    0.0000 C   0  0  0  0  0  0  0  0  0  0  0  0
   -0.6397  -17.5180    0.0000 C   0  0  0  0  0  0  0  0  0  0  0  0
    3.2123   -4.3361    0.0000 C   0  0  0  0  0  0  0  0  0  0  0  0
    3.6898   -3.6468    0.0000 C   0  0  0  0  0  0  0  0  0  0  0  0
    3.1065   -3.0634    0.0000 N   0  0  0  0  0  0  0  0  0  0  0  0
    2.3096   -3.2768    0.0000 C   0  0  0  0  0  0  0  0  0  0  0  0
    4.3857   -3.1649    0.0000 C   0  0  0  0  0  0  0  0  0  0  0  0
    5.0964   -3.6081    0.0000 C   0  0  0  0  0  0  0  0  0  0  0  0
    5.8536   -3.2447    0.0000 C   0  0  0  0  0  0  0  0  0  0  0  0
    5.8870   -2.4087    0.0000 C   0  0  0  0  0  0  0  0  0  0  0  0
    5.1925   -1.9504    0.0000 C   0  0  0  0  0  0  0  0  0  0  0  0
    4.4493   -2.3271    0.0000 C   0  0  0  0  0  0  0  0  0  0  0  0
    6.5269   -7.0877    0.0000 Cl  0  0  0  0  0  0  0  0  0  0  0  0
    7.9837   -6.3257    0.0000 O   0  0  0  0  0  0  0  0  0  0  0  0
    6.1273  -11.7552    0.0000 C   0  0  0  0  0  0  0  0  0  0  0  0
    6.5406  -12.4804    0.0000 C   0  0  0  0  0  0  0  0  0  0  0  0
    7.3748  -12.5016    0.0000 C   0  0  0  0  0  0  0  0  0  0  0  0
    7.8186  -11.7858    0.0000 C   0  0  0  0  0  0  0  0  0  0  0  0
    7.3928  -11.0647    0.0000 C   0  0  0  0  0  0  0  0  0  0  0  0
    6.5697  -11.0489    0.0000 C   0  0  0  0  0  0  0  0  0  0  0  0
    6.1171  -13.1884    0.0000 Cl  0  0  0  0  0  0  0  0  0  0  0  0
    8.5708  -11.3860    0.0000 C   0  0  0  0  0  0  0  0  0  0  0  0
    8.8866  -10.5958    0.0000 C   0  0  0  0  0  0  0  0  0  0  0  0
    9.1849  -11.9370    0.0000 O   0  0  0  0  0  0  0  0  0  0  0  0
    9.7189  -10.7485    0.0000 C   0  0  0  0  0  0  0  0  0  0  0  0
    8.4742   -9.8488    0.0000 N   0  0  0  0  0  0  0  0  0  0  0  0
    7.0913   -8.1573    0.0000 N   0  0  0  0  0  0  0  0  0  0  0  0
    6.6088   -9.3339    0.0000 O   0  0  0  0  0  0  0  0  0  0  0  0
    7.9206   -8.3161    0.0000 C   0  0  0  0  0  0  0  0  0  0  0  0
    7.9783   -9.1650    0.0000 C   0  0  0  0  0  0  0  0  0  0  0  0
    7.2027   -9.4461    0.0000 O   0  0  0  0  0  0  0  0  0  0  0  0
   10.4422  -10.3297    0.0000 N   0  0  0  0  0  0  0  0  0  0  0  0
    9.8599  -11.5614    0.0000 O   0  0  0  0  0  0  0  0  0  0  0  0
   10.5690   -9.5074    0.0000 C   0  0  0  0  0  0  0  0  0  0  0  0
    8.5759   -7.7571    0.0000 C   0  0  0  0  0  0  0  0  0  0  0  0
    9.3549   -8.0644    0.0000 C   0  0  0  0  0  0  0  0  0  0  0  0
   10.0384   -7.5790    0.0000 C   0  0  0  0  0  0  0  0  0  0  0  0
    9.9336   -6.7483    0.0000 C   0  0  0  0  0  0  0  0  0  0  0  0
    9.1739   -6.4163    0.0000 C   0  0  0  0  0  0  0  0  0  0  0  0
    8.5120   -6.9203    0.0000 C   0  0  0  0  0  0  0  0  0  0  0  0
   10.7653   -8.0058    0.0000 C   0  0  0  0  0  0  0  0  0  0  0  0
   11.0088   -8.7940    0.0000 C   0  0  0  0  0  0  0  0  0  0  0  0
   11.8132   -8.9772    0.0000 C   0  0  0  0  0  0  0  0  0  0  0  0
   12.3741   -8.3722    0.0000 C   0  0  0  0  0  0  0  0  0  0  0  0
   12.1305   -7.5840    0.0000 C   0  0  0  0  0  0  0  0  0  0  0  0
   11.3261   -7.4008    0.0000 C   0  0  0  0  0  0  0  0  0  0  0  0
   11.3432   -9.7924    0.0000 C   0  0  0  0  0  0  0  0  0  0  0  0
   11.9771   -9.2644    0.0000 O   0  0  0  0  0  0  0  0  0  0  0  0
   11.4834  -10.6054    0.0000 N   0  0  0  0  0  0  0  0  0  0  0  0
   12.2576  -10.8904    0.0000 C   0  0  0  0  0  0  0  0  0  0  0  0
   12.3979  -11.7034    0.0000 C   0  0  0  0  0  0  0  0  0  0  0  0
   13.1721  -11.9884    0.0000 C   0  0  0  0  0  0  0  0  0  0  0  0
   13.3124  -12.8014    0.0000 N   0  0  0  0  0  0  0  0  0  0  0  0
   14.0866  -13.0864    0.0000 C   0  0  0  0  0  0  0  0  0  0  0  0
   12.6784  -13.3294    0.0000 C   0  0  0  0  0  0  0  0  0  0  0  0
   13.1785   -8.5554    0.0000 O   0  0  0  0  0  0  0  0  0  0  0  0
   11.0826   -6.6125    0.0000 O   0  0  0  0  0  0  0  0  0  0  0  0
   11.6434   -6.0075    0.0000 C   0  0  0  0  0  0  0  0  0  0  0  0
   12.4478   -6.1907    0.0000 O   0  0  0  0  0  0  0  0  0  0  0  0
   13.0087   -5.5857    0.0000 C   0  0  0  0  0  0  0  0  0  0  0  0
   12.7651   -4.7974    0.0000 C   0  0  0  0  0  0  0  0  0  0  0  0
   11.9607   -4.6142    0.0000 C   0  0  0  0  0  0  0  0  0  0  0  0
   11.3999   -5.2193    0.0000 C   0  0  0  0  0  0  0  0  0  0  0  0
   10.5943   -6.2542    0.0000 O   0  0  0  0  0  0  0  0  0  0  0  0
   10.5955   -5.0361    0.0000 O   0  0  0  0  0  0  0  0  0  0  0  0
   11.7172   -3.8260    0.0000 O   0  0  0  0  0  0  0  0  0  0  0  0
   13.3260   -4.1924    0.0000 O   0  0  0  0  0  0  0  0  0  0  0  0
   13.8131   -5.7689    0.0000 C   0  0  0  0  0  0  0  0  0  0  0  0
   14.3739   -5.1638    0.0000 O   0  0  0  0  0  0  0  0  0  0  0  0
    3.8863   -4.8117    0.0000 O   0  0  0  0  0  0  0  0  0  0  0  0
    7.7097   -7.5186    0.0000 H   0  0  0  0  0  0  0  0  0  0  0  0
    9.2855  -11.3180    0.0000 H   0  0  0  0  0  0  0  0  0  0  0  0
    1.8571   -5.5126    0.0000 H   0  0  0  0  0  0  0  0  0  0  0  0
    5.7808   -6.6170    0.0000 H   0  0  0  0  0  0  0  0  0  0  0  0
    5.9365   -7.9557    0.0000 H   0  0  0  0  0  0  0  0  0  0  0  0
    6.5269   -3.7564    0.0000 O   0  0  0  0  0  0  0  0  0  0  0  0
    6.6211   -2.0323    0.0000 O   0  0  0  0  0  0  0  0  0  0  0  0
  1  2  1  0
  1  6  2  0
  2  3  2  0
  3  4  1  0
  4  5  2  0
  5  6  1  0
  2  7  1  0
  3  8  1  0
  4  9  1  0
  6 10  1  0
 10 11  1  0
 10 12  1  0
 12 13  1  0
 13 14  1  0
 13 15  2  0
 14 16  1  0
 14 17  1  0
 17 18  1  0
 17 22  2  0
 18 19  2  0
 19 20  1  0
 20 21  2  0
 21 22  1  0
 16 23  1  0
 23 24  1  0
 23 25  2  0
 24 26  1  0
 24 27  1  0
 27 28  1  0
 28 29  1  0
 28 33  2  0
 29 30  2  0
 30 31  1  0
 31 32  2  0
 32 33  1  0
 31  7  1  0
 34  8  1  1
 34 35  1  0
 39 34  1  0
 35 36  1  0
 36 37  1  0
 37 38  1  0
 38 39  1  0
 35 40  1  6
 36 41  1  1
 37 42  1  6
 38 43  1  1
 43 44  2  0
 43 45  1  0
 40 46  1  0
 46 47  1  0
 46 48  2  0
 47 49  1  0
 49 50  1  0
 50 51  1  0
 51 52  1  0
 52 53  1  0
 53 54  1  0
 54 55  1  0
 55 56  1  0
 56 57  1  0
 56 58  1  0
 26 59  1  0
 59 60  1  0
 60 61  1  6
 61 62  1  0
 60 63  1  0
 63 64  1  0
 63 68  2  0
 64 65  2  0
 65 66  1  0
 66 67  2  0
 67 68  1  0
 18 69  1  0
 19 70  1  0
  9 71  1  0
 71 72  1  0
 71 76  2  0
 72 73  2  0
 73 74  1  0
 74 75  2  0
 75 76  1  0
 72 77  1  0
 74 78  1  0
 78 79  1  0
 78 80  1  6
 79 81  1  0
 79 82  1  0
 11 83  1  0
 11 84  2  0
 85 83  1  0
 85 86  1  0
 86 82  1  0
 86 87  2  0
 81 88  1  0
 81 89  2  0
 88 90  1  0
 85 91  1  0
 91 92  1  0
 91 96  2  0
 92 93  2  0
 93 94  1  0
 94 95  2  0
 95 96  1  0
 93 97  1  0
 97 98  1  0
 97102  2  0
 98 99  2  0
 99100  1  0
100101  2  0
101102  1  0
 90 98  1  0
 90103  1  6
103104  2  0
103105  1  0
105106  1  0
106107  1  0
107108  1  0
108109  1  0
109110  1  0
109111  1  0
100112  1  0
102113  1  0
114113  1  6
114115  1  0
119114  1  0
115116  1  0
116117  1  0
117118  1  0
118119  1  0
 94120  1  0
119121  1  1
118122  1  1
117123  1  6
116124  1  1
124125  1  0
 59126  2  0
 85127  1  1
 79128  1  1
 24129  1  6
 14130  1  6
 10131  1  6
 21132  1  0
 66133  1  0
 65132  1  0
M  END
> <chembl_id>
CHEMBL3301669

> <chembl_pref_name>
DALBAVANCIN

$$$$

     RDKit          2D

 17 16  0  0  0  0  0  0  0  0999 V2000
    7.3292   -5.8417    0.0000 O   0  0  0  0  0  0  0  0  0  0  0  0
    6.0125   -4.3917    0.0000 C   0  0  0  0  0  0  0  0  0  0  0  0
    6.6167   -4.0542    0.0000 C   0  0  0  0  0  0  0  0  0  0  0  0
    5.4000   -4.0542    0.0000 C   0  0  0  0  0  0  0  0  0  0  0  0
    3.5167   -4.4042    0.0000 C   0  0  0  0  0  0  0  0  0  0  0  0
    6.3500   -4.9792    0.0000 N   0  0  0  0  0  0  0  0  0  0  0  0
    3.5167   -5.1292    0.0000 C   0  0  0  0  0  0  0  0  0  0  0  0
    4.1375   -4.0792    0.0000 C   0  0  0  0  0  0  0  0  0  0  0  0
    4.7625   -4.4042    0.0000 C   0  0  0  0  0  0  0  0  0  0  0  0
    6.6167   -3.3375    0.0000 O   0  0  0  0  0  0  0  0  0  0  0  0
    4.1375   -5.4792    0.0000 C   0  0  0  0  0  0  0  0  0  0  0  0
    7.2375   -4.4042    0.0000 O   0  0  0  0  0  0  0  0  0  0  0  0
    4.7625   -5.1292    0.0000 C   0  0  0  0  0  0  0  0  0  0  0  0
    5.9875   -5.5917    0.0000 N   0  0  0  0  0  0  0  0  0  0  0  0
    2.9125   -4.0542    0.0000 O   0  0  0  0  0  0  0  0  0  0  0  0
    5.6542   -5.0042    0.0000 C   0  0  0  0  0  0  0  0  0  0  0  0
    2.9125   -5.4917    0.0000 O   0  0  0  0  0  0  0  0  0  0  0  0
  3  2  1  0
  4  2  1  0
  5  8  2  0
  6  2  1  0
  7 11  2  0
  8  9  1  0
  9  4  1  0
 10  3  2  0
 11 13  1  0
 12  3  1  0
 13  9  2  0
 14  6  1  0
 15  5  1  0
  2 16  1  6
 17  7  1  0
  5  7  1  0
M  END
> <chembl_id>
CHEMBL1200748

> <chembl_pref_name>
CARBIDOPA

$$$$

     RDKit          2D

 26 28  0  0  0  0  0  0  0  0999 V2000
    1.0042   -0.1167    0.0000 C   0  0  0  0  0  0  0  0  0  0  0  0
    1.0250   -1.3625    0.0000 C   0  0  0  0  0  0  0  0  0  0  0  0
    1.4667   -0.7000    0.0000 C   0  0  0  0  0  0  0  0  0  0  0  0
    0.2750   -1.1292    0.0000 C   0  0  0  0  0  0  0  0  0  0  0  0
    0.2750   -0.3500    0.0000 C   0  0  0  0  0  0  0  0  0  0  0  0
   -1.6750    2.2333    0.0000 S   0  0  0  0  0  0  0  0  0  0  0  0
    1.0042    0.6583    0.0000 C   0  0  0  0  0  0  0  0  0  0  0  0
    1.0250   -2.1250    0.0000 C   0  0  0  0  0  0  0  0  0  0  0  0
   -1.0208    1.8583    0.0000 C   0  0  0  0  0  0  0  0  0  0  0  0
   -0.4125    0.0458    0.0000 C   0  0  0  0  0  0  0  0  0  0  0  0
    1.7042   -2.5167    0.0000 C   0  0  0  0  0  0  0  0  0  0  0  0
   -0.4125   -1.5292    0.0000 C   0  0  0  0  0  0  0  0  0  0  0  0
   -1.0333    2.7208    0.0000 O   0  0  0  0  0  0  0  0  0  0  0  0
   -2.2875    2.7208    0.0000 O   0  0  0  0  0  0  0  0  0  0  0  0
    1.7042   -3.2917    0.0000 O   0  0  0  0  0  0  0  0  0  0  0  0
    0.3292    1.0708    0.0000 C   0  0  0  0  0  0  0  0  0  0  0  0
   -1.0208    1.0708    0.0000 C   0  0  0  0  0  0  0  0  0  0  0  0
   -0.3458    2.2583    0.0000 C   0  0  0  0  0  0  0  0  0  0  0  0
   -1.0875   -1.1292    0.0000 C   0  0  0  0  0  0  0  0  0  0  0  0
   -1.0875   -0.3500    0.0000 C   0  0  0  0  0  0  0  0  0  0  0  0
   -2.3458    1.8583    0.0000 C   0  0  0  0  0  0  0  0  0  0  0  0
    2.2500   -0.7000    0.0000 C   0  0  0  0  0  0  0  0  0  0  0  0
    2.3750   -2.1250    0.0000 O   0  0  0  0  0  0  0  0  0  0  0  0
    0.3292    1.8583    0.0000 C   0  0  0  0  0  0  0  0  0  0  0  0
   -0.3458    0.6750    0.0000 C   0  0  0  0  0  0  0  0  0  0  0  0
   -1.7625   -1.5292    0.0000 F   0  0  0  0  0  0  0  0  0  0  0  0
  2  3  2  0
  3  1  1  0
  4  5  2  0
  5  1  1  0
  6  9  1  0
  7  1  2  0
  8  2  1  0
  9 17  1  0
 10  5  1  0
 11  8  1  0
 12  4  1  0
 13  6  2  0
 14  6  2  0
 15 11  2  0
 16  7  1  0
 17 25  2  0
 18 24  1  0
 19 20  1  0
 20 10  2  0
 21  6  1  0
 22  3  1  0
 23 11  1  0
 24 16  2  0
 25 16  1  0
 26 19  1  0
  4  2  1  0
 18  9  2  0
 12 19  2  0
M  END
> <chembl_id>
CHEMBL488025

> <chembl_pref_name>
EXISULIND

$$$$

     RDKit          2D

 34 38  0  0  0  0  0  0  0  0999 V2000
   -0.3708   -7.8292    0.0000 C   0  0  0  0  0  0  0  0  0  0  0  0
    1.0542   -7.0167    0.0000 C   0  0  0  0  0  0  0  0  0  0  0  0
   -1.0833   -8.2500    0.0000 C   0  0  0  0  0  0  0  0  0  0  0  0
    0.3375   -8.2500    0.0000 C   0  0  0  0  0  0  0  0  0  0  0  0
   -0.3708   -7.0042    0.0000 C   0  0  0  0  0  0  0  0  0  0  0  0
    1.0542   -7.8417    0.0000 C   0  0  0  0  0  0  0  0  0  0  0  0
   -1.0833   -9.0750    0.0000 C   0  0  0  0  0  0  0  0  0  0  0  0
    0.3417   -6.6042    0.0000 C   0  0  0  0  0  0  0  0  0  0  0  0
    1.8417   -6.7667    0.0000 C   0  0  0  0  0  0  0  0  0  0  0  0
   -1.7958   -9.4792    0.0000 C   0  0  0  0  0  0  0  0  0  0  0  0
    2.6625   -6.7667    0.0000 C   0  0  0  0  0  0  0  0  0  0  0  0
    0.3417   -9.0750    0.0000 C   0  0  0  0  0  0  0  0  0  0  0  0
   -1.7958   -7.8292    0.0000 C   0  0  0  0  0  0  0  0  0  0  0  0
    1.8292   -8.0917    0.0000 C   0  0  0  0  0  0  0  0  0  0  0  0
    3.4875   -6.7667    0.0000 C   0  0  0  0  0  0  0  0  0  0  0  0
   -1.0833   -6.5917    0.0000 C   0  0  0  0  0  0  0  0  0  0  0  0
   -0.3708   -9.4792    0.0000 C   0  0  0  0  0  0  0  0  0  0  0  0
   -2.5083   -9.0750    0.0000 C   0  0  0  0  0  0  0  0  0  0  0  0
   -2.5083   -5.7625    0.0000 C   0  0  0  0  0  0  0  0  0  0  0  0
    2.3167   -7.4292    0.0000 C   0  0  0  0  0  0  0  0  0  0  0  0
   -3.2208   -5.3417    0.0000 N   0  0  0  0  0  0  0  0  0  0  0  0
   -1.7958   -7.0042    0.0000 C   0  0  0  0  0  0  0  0  0  0  0  0
   -1.0833   -5.7667    0.0000 C   0  0  0  0  0  0  0  0  0  0  0  0
   -1.7958   -5.3500    0.0000 C   0  0  0  0  0  0  0  0  0  0  0  0
   -2.5083   -6.5917    0.0000 C   0  0  0  0  0  0  0  0  0  0  0  0
   -3.2250   -9.4875    0.0000 O   0  0  0  0  0  0  0  0  0  0  0  0
   -2.5083   -8.2500    0.0000 C   0  0  0  0  0  0  0  0  0  0  0  0
    1.8292   -5.9417    0.0000 O   0  0  0  0  0  0  0  0  0  0  0  0
    1.0542   -6.1917    0.0000 C   0  0  0  0  0  0  0  0  0  0  0  0
    4.3167   -6.7667    0.0000 C   0  0  0  0  0  0  0  0  0  0  0  0
   -3.9375   -5.7542    0.0000 C   0  0  0  0  0  0  0  0  0  0  0  0
   -3.2208   -4.5167    0.0000 C   0  0  0  0  0  0  0  0  0  0  0  0
    0.3292   -7.4250    0.0000 H   0  0  0  0  0  0  0  0  0  0  0  0
    1.0500   -8.6625    0.0000 H   0  0  0  0  0  0  0  0  0  0  0  0
  2  8  1  0
  3  1  2  0
  4  1  1  0
  5  1  1  0
  6  4  1  0
  7  3  1  0
  8  5  1  0
  9  2  1  0
 10  7  2  0
 11  9  1  0
 12  4  1  0
 13  3  1  0
 14  6  1  0
 15 11  3  0
  5 16  1  1
 17 12  1  0
 18 27  1  0
 19 24  2  0
 20 14  1  0
 21 19  1  0
 22 16  1  0
 23 16  2  0
 24 23  1  0
 25 22  2  0
 26 18  2  0
 27 13  1  0
  9 28  1  1
  2 29  1  1
 30 15  1  0
 31 21  1  0
 32 21  1  0
  4 33  1  1
  6 34  1  6
  2  6  1  0
  7 17  1  0
 25 19  1  0
 20  9  1  0
 10 18  1  0
M  END
> <chembl_id>
CHEMBL1276308

> <chembl_pref_name>
MIFEPRISTONE

$$$$

     RDKit          2D

 41 49  0  0  0  0  0  0  0  0999 V2000
   -5.8397    3.0853    0.0000 C   0  0  0  0  0  0  0  0  0  0  0  0
   -6.5886    2.7391    0.0000 C   0  0  0  0  0  0  0  0  0  0  0  0
   -6.6632    1.9174    0.0000 C   0  0  0  0  0  0  0  0  0  0  0  0
   -5.9889    1.4420    0.0000 C   0  0  0  0  0  0  0  0  0  0  0  0
   -5.2401    1.7882    0.0000 C   0  0  0  0  0  0  0  0  0  0  0  0
   -5.1654    2.6099    0.0000 C   0  0  0  0  0  0  0  0  0  0  0  0
   -3.0809    3.5378    0.0000 C   0  0  0  0  0  0  0  0  0  0  0  0
   -3.9059    3.5455    0.0000 C   0  0  0  0  0  0  0  0  0  0  0  0
   -3.0790    2.1004    0.0000 C   0  0  0  0  0  0  0  0  0  0  0  0
   -2.6475    2.8161    0.0000 C   0  0  0  0  0  0  0  0  0  0  0  0
   -1.1539    3.0310    0.0000 C   0  0  0  0  0  0  0  0  0  0  0  0
   -1.0512    1.3842    0.0000 C   0  0  0  0  0  0  0  0  0  0  0  0
   -0.3638    1.8404    0.0000 C   0  0  0  0  0  0  0  0  0  0  0  0
   -0.4152    2.6638    0.0000 C   0  0  0  0  0  0  0  0  0  0  0  0
   -4.3509    2.8299    0.0000 C   0  0  0  0  0  0  0  0  0  0  0  0
   -4.4638    1.4361    0.0000 N   0  0  0  0  0  0  0  0  0  0  0  0
   -3.9292    2.1103    0.0000 C   0  0  0  0  0  0  0  0  0  0  0  0
   -2.5649    1.4110    0.0000 N   0  0  0  0  0  0  0  0  0  0  0  0
   -1.7900    1.7515    0.0000 C   0  0  0  0  0  0  0  0  0  0  0  0
   -1.8413    2.5749    0.0000 C   0  0  0  0  0  0  0  0  0  0  0  0
   -3.4816    4.8111    0.0000 N   0  0  0  0  0  0  0  0  0  0  0  0
   -4.1535    4.3324    0.0000 C   0  0  0  0  0  0  0  0  0  0  0  0
   -2.8187    4.3200    0.0000 C   0  0  0  0  0  0  0  0  0  0  0  0
   -3.5227    0.6440    0.0000 O   0  0  0  0  0  0  0  0  0  0  0  0
   -4.2531    0.5719    0.0000 C   0  0  0  0  0  0  0  0  0  0  0  0
   -3.9697   -0.2604    0.0000 C   0  0  0  0  0  0  0  0  0  0  0  0
   -3.1004   -0.2669    0.0000 C   0  0  0  0  0  0  0  0  0  0  0  0
   -2.7980    0.5528    0.0000 C   0  0  0  0  0  0  0  0  0  0  0  0
   -3.6031   -0.9211    0.0000 O   0  0  0  0  0  0  0  0  0  0  0  0
   -3.1363   -1.6013    0.0000 C   0  0  0  0  0  0  0  0  0  0  0  0
   -2.3451   -1.3676    0.0000 N   0  0  0  0  0  0  0  0  0  0  0  0
   -2.3229   -0.5429    0.0000 C   0  0  0  0  0  0  0  0  0  0  0  0
   -4.9357    4.5946    0.0000 O   0  0  0  0  0  0  0  0  0  0  0  0
   -5.0452    0.3410    0.0000 H   0  0  0  0  0  0  0  0  0  0  0  0
   -2.0122    0.3017    0.0000 C   0  0  0  0  0  0  0  0  0  0  0  0
   -1.5317   -0.3091    0.0000 O   0  0  0  0  0  0  0  0  0  0  0  0
   -3.4123   -2.3788    0.0000 O   0  0  0  0  0  0  0  0  0  0  0  0
   -1.6414   -1.7981    0.0000 C   0  0  0  0  0  0  0  0  0  0  0  0
   -0.9166   -1.4039    0.0000 C   0  0  0  0  0  0  0  0  0  0  0  0
   -0.2129   -1.8345    0.0000 O   0  0  0  0  0  0  0  0  0  0  0  0
    0.5118   -1.4403    0.0000 C   0  0  0  0  0  0  0  0  0  0  0  0
  1  2  2  0
  2  3  1  0
  3  4  2  0
  4  5  1  0
  5  6  2  0
  1  6  1  0
  7  8  2  0
  9 10  2  0
  7 10  1  0
 12 13  2  0
 13 14  1  0
 11 14  2  0
 16 17  1  0
 15 17  2  0
 18 19  1  0
 19 20  2  0
 21 22  1  0
 21 23  1  0
 24 25  1  0
 25 26  1  0
 26 27  1  0
 27 28  1  0
 24 28  1  0
 29 30  1  0
 30 31  1  0
 31 32  1  0
 15  6  1  0
  5 16  1  0
  8 15  1  0
 17  9  1  0
 10 20  1  0
  9 18  1  0
 22  8  1  0
  7 23  1  0
 19 12  1  0
 11 20  1  0
 27 29  1  6
 27 32  1  1
 22 33  2  0
 18 28  1  0
 16 25  1  0
 25 34  1  1
 28 35  1  1
 32 36  2  0
 30 37  2  0
 31 38  1  0
 38 39  1  0
 39 40  1  0
 40 41  1  0
M  END
> <chembl_id>
CHEMBL4297182

> <chembl_pref_name>
PEGCANTRATINIB

$$$$

     RDKit          2D

134145  0  0  0  0  0  0  0  0999 V2000
    8.0218  -15.7128    0.0000 Cl  0  0  0  0  0  0  0  0  0  0  0  0
    4.0765   -9.1840    0.0000 C   0  0  0  0  0  0  0  0  0  0  0  0
    3.5884   -9.8537    0.0000 C   0  0  0  0  0  0  0  0  0  0  0  0
    3.9565  -10.5948    0.0000 C   0  0  0  0  0  0  0  0  0  0  0  0
    4.7866  -10.6635    0.0000 C   0  0  0  0  0  0  0  0  0  0  0  0
    5.2461   -9.9689    0.0000 C   0  0  0  0  0  0  0  0  0  0  0  0
    4.9043   -9.2180    0.0000 C   0  0  0  0  0  0  0  0  0  0  0  0
    2.8130   -9.5367    0.0000 O   0  0  0  0  0  0  0  0  0  0  0  0
    3.4975  -11.2714    0.0000 O   0  0  0  0  0  0  0  0  0  0  0  0
    5.3047  -11.3195    0.0000 O   0  0  0  0  0  0  0  0  0  0  0  0
    5.4694   -8.5893    0.0000 C   0  0  0  0  0  0  0  0  0  0  0  0
    6.2963   -8.4723    0.0000 C   0  0  0  0  0  0  0  0  0  0  0  0
    5.1674   -7.8100    0.0000 N   0  0  0  0  0  0  0  0  0  0  0  0
    5.0875   -6.9856    0.0000 C   0  0  0  0  0  0  0  0  0  0  0  0
    5.0173   -6.1545    0.0000 C   0  0  0  0  0  0  0  0  0  0  0  0
    4.2733   -7.0596    0.0000 O   0  0  0  0  0  0  0  0  0  0  0  0
    4.2045   -5.9560    0.0000 N   0  0  0  0  0  0  0  0  0  0  0  0
    5.7786   -5.7810    0.0000 C   0  0  0  0  0  0  0  0  0  0  0  0
    6.4925   -6.2065    0.0000 C   0  0  0  0  0  0  0  0  0  0  0  0
    7.2226   -5.8288    0.0000 C   0  0  0  0  0  0  0  0  0  0  0  0
    7.2579   -5.0079    0.0000 C   0  0  0  0  0  0  0  0  0  0  0  0
    6.5671   -4.5532    0.0000 C   0  0  0  0  0  0  0  0  0  0  0  0
    5.8388   -4.9541    0.0000 C   0  0  0  0  0  0  0  0  0  0  0  0
    3.3801   -6.0775    0.0000 C   0  0  0  0  0  0  0  0  0  0  0  0
    2.5773   -5.8171    0.0000 C   0  0  0  0  0  0  0  0  0  0  0  0
    3.3118   -6.8922    0.0000 O   0  0  0  0  0  0  0  0  0  0  0  0
    2.6956   -4.9758    0.0000 N   0  0  0  0  0  0  0  0  0  0  0  0
    1.9897   -6.4396    0.0000 C   0  0  0  0  0  0  0  0  0  0  0  0
    1.8359   -7.2833    0.0000 C   0  0  0  0  0  0  0  0  0  0  0  0
    2.6177   -7.5563    0.0000 C   0  0  0  0  0  0  0  0  0  0  0  0
    2.8060   -8.3510    0.0000 C   0  0  0  0  0  0  0  0  0  0  0  0
    2.2198   -8.9360    0.0000 C   0  0  0  0  0  0  0  0  0  0  0  0
    1.4232   -8.6879    0.0000 C   0  0  0  0  0  0  0  0  0  0  0  0
    1.2444   -7.8764    0.0000 C   0  0  0  0  0  0  0  0  0  0  0  0
    2.6821  -11.2120    0.0000 C   0  0  0  0  0  0  0  0  0  0  0  0
    2.2231  -11.8885    0.0000 C   0  0  0  0  0  0  0  0  0  0  0  0
    1.4076  -11.8293    0.0000 C   0  0  0  0  0  0  0  0  0  0  0  0
    1.0512  -11.0935    0.0000 C   0  0  0  0  0  0  0  0  0  0  0  0
    1.5103  -10.4169    0.0000 C   0  0  0  0  0  0  0  0  0  0  0  0
    2.3257  -10.4762    0.0000 O   0  0  0  0  0  0  0  0  0  0  0  0
    2.5794  -12.6244    0.0000 N   0  0  0  0  0  0  0  0  0  0  0  0
    0.9486  -12.5058    0.0000 O   0  0  0  0  0  0  0  0  0  0  0  0
    0.2359  -11.0342    0.0000 O   0  0  0  0  0  0  0  0  0  0  0  0
    1.1539   -9.6811    0.0000 C   0  0  0  0  0  0  0  0  0  0  0  0
    1.6130   -9.0046    0.0000 O   0  0  0  0  0  0  0  0  0  0  0  0
    0.3385   -9.6219    0.0000 O   0  0  0  0  0  0  0  0  0  0  0  0
    2.1203  -13.3009    0.0000 C   0  0  0  0  0  0  0  0  0  0  0  0
    2.4767  -14.0367    0.0000 C   0  0  0  0  0  0  0  0  0  0  0  0
    1.3049  -13.2416    0.0000 O   0  0  0  0  0  0  0  0  0  0  0  0
    2.0176  -14.7132    0.0000 C   0  0  0  0  0  0  0  0  0  0  0  0
    2.3740  -15.4491    0.0000 C   0  0  0  0  0  0  0  0  0  0  0  0
    1.9150  -16.1256    0.0000 C   0  0  0  0  0  0  0  0  0  0  0  0
    2.2713  -16.8614    0.0000 C   0  0  0  0  0  0  0  0  0  0  0  0
    1.8123  -17.5378    0.0000 C   0  0  0  0  0  0  0  0  0  0  0  0
    0.9969  -17.4786    0.0000 C   0  0  0  0  0  0  0  0  0  0  0  0
    0.6406  -16.7428    0.0000 C   0  0  0  0  0  0  0  0  0  0  0  0
   -0.1749  -16.6835    0.0000 C   0  0  0  0  0  0  0  0  0  0  0  0
   -0.5313  -15.9477    0.0000 C   0  0  0  0  0  0  0  0  0  0  0  0
   -0.6339  -17.3601    0.0000 C   0  0  0  0  0  0  0  0  0  0  0  0
    3.1833   -4.2970    0.0000 C   0  0  0  0  0  0  0  0  0  0  0  0
    3.6565   -3.6139    0.0000 C   0  0  0  0  0  0  0  0  0  0  0  0
    3.0785   -3.0358    0.0000 N   0  0  0  0  0  0  0  0  0  0  0  0
    2.2888   -3.2473    0.0000 C   0  0  0  0  0  0  0  0  0  0  0  0
    4.3462   -3.1364    0.0000 C   0  0  0  0  0  0  0  0  0  0  0  0
    5.0505   -3.5756    0.0000 C   0  0  0  0  0  0  0  0  0  0  0  0
    5.8008   -3.2154    0.0000 C   0  0  0  0  0  0  0  0  0  0  0  0
    5.8339   -2.3870    0.0000 C   0  0  0  0  0  0  0  0  0  0  0  0
    5.1457   -1.9328    0.0000 C   0  0  0  0  0  0  0  0  0  0  0  0
    4.4092   -2.3061    0.0000 C   0  0  0  0  0  0  0  0  0  0  0  0
    6.4681   -7.0238    0.0000 Cl  0  0  0  0  0  0  0  0  0  0  0  0
    7.9117   -6.2687    0.0000 O   0  0  0  0  0  0  0  0  0  0  0  0
    6.0721  -11.6492    0.0000 C   0  0  0  0  0  0  0  0  0  0  0  0
    6.4816  -12.3679    0.0000 C   0  0  0  0  0  0  0  0  0  0  0  0
    7.3083  -12.3889    0.0000 C   0  0  0  0  0  0  0  0  0  0  0  0
    7.7481  -11.6795    0.0000 C   0  0  0  0  0  0  0  0  0  0  0  0
    7.3262  -10.9649    0.0000 C   0  0  0  0  0  0  0  0  0  0  0  0
    6.5105  -10.9493    0.0000 C   0  0  0  0  0  0  0  0  0  0  0  0
    6.0620  -13.0695    0.0000 Cl  0  0  0  0  0  0  0  0  0  0  0  0
    8.4935  -11.2833    0.0000 C   0  0  0  0  0  0  0  0  0  0  0  0
    8.8065  -10.5003    0.0000 C   0  0  0  0  0  0  0  0  0  0  0  0
    9.1021  -11.8294    0.0000 O   0  0  0  0  0  0  0  0  0  0  0  0
    9.6313  -10.6516    0.0000 C   0  0  0  0  0  0  0  0  0  0  0  0
    8.3978   -9.7600    0.0000 N   0  0  0  0  0  0  0  0  0  0  0  0
    7.0274   -8.0838    0.0000 N   0  0  0  0  0  0  0  0  0  0  0  0
    6.5492   -9.2498    0.0000 O   0  0  0  0  0  0  0  0  0  0  0  0
    7.8492   -8.2411    0.0000 C   0  0  0  0  0  0  0  0  0  0  0  0
    7.9064   -9.0824    0.0000 C   0  0  0  0  0  0  0  0  0  0  0  0
    7.1378   -9.3609    0.0000 O   0  0  0  0  0  0  0  0  0  0  0  0
   10.3481  -10.2366    0.0000 N   0  0  0  0  0  0  0  0  0  0  0  0
    9.7710  -11.4572    0.0000 O   0  0  0  0  0  0  0  0  0  0  0  0
   10.4737   -9.4217    0.0000 C   0  0  0  0  0  0  0  0  0  0  0  0
    8.4986   -7.6872    0.0000 C   0  0  0  0  0  0  0  0  0  0  0  0
    9.2706   -7.9917    0.0000 C   0  0  0  0  0  0  0  0  0  0  0  0
    9.9479   -7.5107    0.0000 C   0  0  0  0  0  0  0  0  0  0  0  0
    9.8440   -6.6875    0.0000 C   0  0  0  0  0  0  0  0  0  0  0  0
    9.0912   -6.3585    0.0000 C   0  0  0  0  0  0  0  0  0  0  0  0
    8.4353   -6.8579    0.0000 C   0  0  0  0  0  0  0  0  0  0  0  0
   10.6682   -7.9336    0.0000 C   0  0  0  0  0  0  0  0  0  0  0  0
   10.9096   -8.7147    0.0000 C   0  0  0  0  0  0  0  0  0  0  0  0
   11.7067   -8.8963    0.0000 C   0  0  0  0  0  0  0  0  0  0  0  0
   12.2625   -8.2967    0.0000 C   0  0  0  0  0  0  0  0  0  0  0  0
   12.0211   -7.5156    0.0000 C   0  0  0  0  0  0  0  0  0  0  0  0
   11.2240   -7.3341    0.0000 C   0  0  0  0  0  0  0  0  0  0  0  0
   11.2409   -9.7041    0.0000 C   0  0  0  0  0  0  0  0  0  0  0  0
   11.8691   -9.1809    0.0000 O   0  0  0  0  0  0  0  0  0  0  0  0
   11.3799  -10.5098    0.0000 N   0  0  0  0  0  0  0  0  0  0  0  0
   12.1471  -10.7922    0.0000 C   0  0  0  0  0  0  0  0  0  0  0  0
   12.2861  -11.5979    0.0000 C   0  0  0  0  0  0  0  0  0  0  0  0
   13.0533  -11.8803    0.0000 C   0  0  0  0  0  0  0  0  0  0  0  0
   13.1924  -12.6860    0.0000 N   0  0  0  0  0  0  0  0  0  0  0  0
   13.9596  -12.9684    0.0000 C   0  0  0  0  0  0  0  0  0  0  0  0
   12.5641  -13.2092    0.0000 C   0  0  0  0  0  0  0  0  0  0  0  0
   13.0597   -8.4783    0.0000 O   0  0  0  0  0  0  0  0  0  0  0  0
   10.9827   -6.5529    0.0000 O   0  0  0  0  0  0  0  0  0  0  0  0
   11.5384   -5.9533    0.0000 C   0  0  0  0  0  0  0  0  0  0  0  0
   12.3356   -6.1349    0.0000 O   0  0  0  0  0  0  0  0  0  0  0  0
   12.8914   -5.5353    0.0000 C   0  0  0  0  0  0  0  0  0  0  0  0
   12.6500   -4.7541    0.0000 C   0  0  0  0  0  0  0  0  0  0  0  0
   11.8529   -4.5726    0.0000 C   0  0  0  0  0  0  0  0  0  0  0  0
   11.2971   -5.1722    0.0000 C   0  0  0  0  0  0  0  0  0  0  0  0
   10.4988   -6.1978    0.0000 O   0  0  0  0  0  0  0  0  0  0  0  0
   10.5000   -4.9907    0.0000 O   0  0  0  0  0  0  0  0  0  0  0  0
   11.6116   -3.7915    0.0000 O   0  0  0  0  0  0  0  0  0  0  0  0
   13.2059   -4.1546    0.0000 O   0  0  0  0  0  0  0  0  0  0  0  0
   13.6886   -5.7169    0.0000 C   0  0  0  0  0  0  0  0  0  0  0  0
   14.2443   -5.1172    0.0000 O   0  0  0  0  0  0  0  0  0  0  0  0
    3.8513   -4.7683    0.0000 O   0  0  0  0  0  0  0  0  0  0  0  0
    7.6402   -7.4508    0.0000 H   0  0  0  0  0  0  0  0  0  0  0  0
    9.2018  -11.2160    0.0000 H   0  0  0  0  0  0  0  0  0  0  0  0
    1.8404   -5.4629    0.0000 H   0  0  0  0  0  0  0  0  0  0  0  0
    5.7287   -6.5573    0.0000 H   0  0  0  0  0  0  0  0  0  0  0  0
    5.8830   -7.8840    0.0000 H   0  0  0  0  0  0  0  0  0  0  0  0
    6.4681   -3.7225    0.0000 O   0  0  0  0  0  0  0  0  0  0  0  0
    6.5614   -2.0140    0.0000 O   0  0  0  0  0  0  0  0  0  0  0  0
  2  3  1  0
  2  7  2  0
  3  4  2  0
  4  5  1  0
  5  6  2  0
  6  7  1  0
  3  8  1  0
  4  9  1  0
  5 10  1  0
  7 11  1  0
 11 12  1  0
 11 13  1  0
 13 14  1  0
 14 15  1  0
 14 16  2  0
 15 17  1  0
 15 18  1  0
 18 19  1  0
 18 23  2  0
 19 20  2  0
 20 21  1  0
 21 22  2  0
 22 23  1  0
 17 24  1  0
 24 25  1  0
 24 26  2  0
 25 27  1  0
 25 28  1  0
 28 29  1  0
 29 30  1  0
 29 34  2  0
 30 31  2  0
 31 32  1  0
 32 33  2  0
 33 34  1  0
 32  8  1  0
 35  9  1  1
 35 36  1  0
 40 35  1  0
 36 37  1  0
 37 38  1  0
 38 39  1  0
 39 40  1  0
 36 41  1  6
 37 42  1  1
 38 43  1  6
 39 44  1  1
 44 45  2  0
 44 46  1  0
 41 47  1  0
 47 48  1  0
 47 49  2  0
 48 50  1  0
 50 51  1  0
 51 52  1  0
 52 53  1  0
 53 54  1  0
 54 55  1  0
 55 56  1  0
 56 57  1  0
 57 58  1  0
 57 59  1  0
 27 60  1  0
 60 61  1  0
 61 62  1  6
 62 63  1  0
 61 64  1  0
 64 65  1  0
 64 69  2  0
 65 66  2  0
 66 67  1  0
 67 68  2  0
 68 69  1  0
 19 70  1  0
 20 71  1  0
 10 72  1  0
 72 73  1  0
 72 77  2  0
 73 74  2  0
 74 75  1  0
 75 76  2  0
 76 77  1  0
 73 78  1  0
 75 79  1  0
 79 80  1  0
 79 81  1  6
 80 82  1  0
 80 83  1  0
 12 84  1  0
 12 85  2  0
 86 84  1  0
 86 87  1  0
 87 83  1  0
 87 88  2  0
 82 89  1  0
 82 90  2  0
 89 91  1  0
 86 92  1  0
 92 93  1  0
 92 97  2  0
 93 94  2  0
 94 95  1  0
 95 96  2  0
 96 97  1  0
 94 98  1  0
 98 99  1  0
 98103  2  0
 99100  2  0
100101  1  0
101102  2  0
102103  1  0
 91 99  1  0
 91104  1  6
104105  2  0
104106  1  0
106107  1  0
107108  1  0
108109  1  0
109110  1  0
110111  1  0
110112  1  0
101113  1  0
103114  1  0
115114  1  6
115116  1  0
120115  1  0
116117  1  0
117118  1  0
118119  1  0
119120  1  0
 95121  1  0
120122  1  1
119123  1  1
118124  1  6
117125  1  1
125126  1  0
 60127  2  0
 86128  1  1
 80129  1  1
 25130  1  6
 15131  1  6
 11132  1  6
 22133  1  0
 67134  1  0
 66133  1  0
M  END
> <chembl_id>
CHEMBL3301650

> <chembl_pref_name>
DALBAVANCIN HYDROCHLORIDE

$$$$

     RDKit          2D

 20 23  0  0  0  0  0  0  0  0999 V2000
    4.7292   -5.5167    0.0000 N   0  0  0  0  0  0  0  0  0  0  0  0
    5.4417   -5.5167    0.0000 C   0  0  0  0  0  0  0  0  0  0  0  0
    4.2792   -5.0167    0.0000 C   0  0  0  0  0  0  0  0  0  0  0  0
    5.8542   -4.9167    0.0000 C   0  0  0  0  0  0  0  0  0  0  0  0
    4.4250   -4.2542    0.0000 C   0  0  0  0  0  0  0  0  0  0  0  0
    5.7125   -4.2500    0.0000 C   0  0  0  0  0  0  0  0  0  0  0  0
    4.3875   -6.1292    0.0000 C   0  0  0  0  0  0  0  0  0  0  0  0
    5.0417   -3.9292    0.0000 C   0  0  0  0  0  0  0  0  0  0  0  0
    5.4292   -6.7375    0.0000 N   0  0  0  0  0  0  0  0  0  0  0  0
    5.7917   -6.1167    0.0000 C   0  0  0  0  0  0  0  0  0  0  0  0
    3.6167   -5.2292    0.0000 N   0  0  0  0  0  0  0  0  0  0  0  0
    4.7042   -6.7375    0.0000 C   0  0  0  0  0  0  0  0  0  0  0  0
    6.5542   -5.1250    0.0000 C   0  0  0  0  0  0  0  0  0  0  0  0
    3.8667   -3.8417    0.0000 C   0  0  0  0  0  0  0  0  0  0  0  0
    5.7542   -7.4417    0.0000 C   0  0  0  0  0  0  0  0  0  0  0  0
    6.2042   -3.7500    0.0000 C   0  0  0  0  0  0  0  0  0  0  0  0
    3.0875   -4.7792    0.0000 C   0  0  0  0  0  0  0  0  0  0  0  0
    3.2292   -4.0917    0.0000 C   0  0  0  0  0  0  0  0  0  0  0  0
    7.0542   -4.6500    0.0000 C   0  0  0  0  0  0  0  0  0  0  0  0
    6.8875   -3.9625    0.0000 C   0  0  0  0  0  0  0  0  0  0  0  0
  2  1  1  0
  3  1  1  0
  4  2  1  0
  5  3  2  0
  6  4  2  0
  7  1  1  0
  8  5  1  0
  9 12  1  0
 10  2  1  0
 11  3  1  0
 12  7  1  0
 13  4  1  0
 14  5  1  0
 15  9  1  0
 16  6  1  0
 17 11  2  0
 18 17  1  0
 19 13  2  0
 20 19  1  0
  9 10  1  0
  8  6  1  0
 18 14  2  0
 20 16  2  0
M  END
> <chembl_id>
CHEMBL654

> <chembl_pref_name>
MIRTAZAPINE

$$$$

     RDKit          2D

 59 63  0  0  0  0  0  0  0  0999 V2000
    8.3750  -22.8792    0.0000 C   0  0  0  0  0  0  0  0  0  0  0  0
   10.5500  -21.6250    0.0000 C   0  0  0  0  0  0  0  0  0  0  0  0
   10.5500  -22.4667    0.0000 C   0  0  0  0  0  0  0  0  0  0  0  0
    7.6625  -22.4667    0.0000 C   0  0  0  0  0  0  0  0  0  0  0  0
    9.0875  -21.6250    0.0000 C   0  0  0  0  0  0  0  0  0  0  0  0
    9.0875  -22.4667    0.0000 C   0  0  0  0  0  0  0  0  0  0  0  0
    7.1917  -23.6833    0.0000 C   0  0  0  0  0  0  0  0  0  0  0  0
   11.2667  -21.2083    0.0000 N   0  0  0  0  0  0  0  0  0  0  0  0
    7.0250  -22.8792    0.0000 O   0  0  0  0  0  0  0  0  0  0  0  0
    9.8292  -21.2083    0.0000 C   0  0  0  0  0  0  0  0  0  0  0  0
    9.8292  -22.8792    0.0000 C   0  0  0  0  0  0  0  0  0  0  0  0
    8.3750  -21.2083    0.0000 C   0  0  0  0  0  0  0  0  0  0  0  0
    8.1542  -23.6833    0.0000 C   0  0  0  0  0  0  0  0  0  0  0  0
    7.6625  -21.6250    0.0000 C   0  0  0  0  0  0  0  0  0  0  0  0
    6.9333  -20.3792    0.0000 C   0  0  0  0  0  0  0  0  0  0  0  0
   11.2667  -20.3792    0.0000 C   0  0  0  0  0  0  0  0  0  0  0  0
    7.6625  -19.9375    0.0000 C   0  0  0  0  0  0  0  0  0  0  0  0
    8.3750  -18.7500    0.0000 C   0  0  0  0  0  0  0  0  0  0  0  0
    7.6625  -19.1208    0.0000 C   0  0  0  0  0  0  0  0  0  0  0  0
   11.2667  -22.8792    0.0000 C   0  0  0  0  0  0  0  0  0  0  0  0
    6.9333  -21.2083    0.0000 C   0  0  0  0  0  0  0  0  0  0  0  0
   12.6917  -22.8792    0.0000 N   0  0  0  0  0  0  0  0  0  0  0  0
    9.0875  -19.1208    0.0000 C   0  0  0  0  0  0  0  0  0  0  0  0
   11.9667  -22.4667    0.0000 N   0  0  0  0  0  0  0  0  0  0  0  0
   12.0083  -19.9375    0.0000 C   0  0  0  0  0  0  0  0  0  0  0  0
    6.2500  -23.6833    0.0000 O   0  0  0  0  0  0  0  0  0  0  0  0
    6.2375  -19.9417    0.0000 O   0  0  0  0  0  0  0  0  0  0  0  0
   14.1083  -23.7125    0.0000 N   0  0  0  0  0  0  0  0  0  0  0  0
    5.8917  -23.0750    0.0000 C   0  0  0  0  0  0  0  0  0  0  0  0
    5.4125  -19.9417    0.0000 C   0  0  0  0  0  0  0  0  0  0  0  0
    6.2250  -22.4667    0.0000 C   0  0  0  0  0  0  0  0  0  0  0  0
    6.2250  -21.6250    0.0000 C   0  0  0  0  0  0  0  0  0  0  0  0
   11.2667  -18.7500    0.0000 C   0  0  0  0  0  0  0  0  0  0  0  0
    8.5625  -24.3875    0.0000 O   0  0  0  0  0  0  0  0  0  0  0  0
   12.0083  -19.1208    0.0000 C   0  0  0  0  0  0  0  0  0  0  0  0
   10.5500  -19.9667    0.0000 O   0  0  0  0  0  0  0  0  0  0  0  0
   12.6833  -23.7000    0.0000 C   0  0  0  0  0  0  0  0  0  0  0  0
   13.3958  -22.4667    0.0000 C   0  0  0  0  0  0  0  0  0  0  0  0
    9.8292  -18.7500    0.0000 C   0  0  0  0  0  0  0  0  0  0  0  0
   10.5500  -19.1208    0.0000 C   0  0  0  0  0  0  0  0  0  0  0  0
    4.9708  -19.2458    0.0000 O   0  0  0  0  0  0  0  0  0  0  0  0
    9.8292  -20.3833    0.0000 O   0  0  0  0  0  0  0  0  0  0  0  0
    9.8292  -23.7000    0.0000 O   0  0  0  0  0  0  0  0  0  0  0  0
    8.3750  -20.3833    0.0000 O   0  0  0  0  0  0  0  0  0  0  0  0
   14.1083  -22.8917    0.0000 C   0  0  0  0  0  0  0  0  0  0  0  0
   13.3875  -24.1125    0.0000 C   0  0  0  0  0  0  0  0  0  0  0  0
    6.9333  -18.7458    0.0000 O   0  0  0  0  0  0  0  0  0  0  0  0
    9.0875  -19.9417    0.0000 O   0  0  0  0  0  0  0  0  0  0  0  0
    7.1917  -24.5083    0.0000 C   0  0  0  0  0  0  0  0  0  0  0  0
    7.6625  -20.8042    0.0000 C   0  0  0  0  0  0  0  0  0  0  0  0
    8.3750  -19.5208    0.0000 C   0  0  0  0  0  0  0  0  0  0  0  0
    8.3750  -17.9292    0.0000 C   0  0  0  0  0  0  0  0  0  0  0  0
    5.5083  -21.2208    0.0000 O   0  0  0  0  0  0  0  0  0  0  0  0
    6.9333  -22.0292    0.0000 C   0  0  0  0  0  0  0  0  0  0  0  0
   14.8167  -24.1292    0.0000 C   0  0  0  0  0  0  0  0  0  0  0  0
   12.7250  -20.3417    0.0000 C   0  0  0  0  0  0  0  0  0  0  0  0
    5.0125  -20.6583    0.0000 C   0  0  0  0  0  0  0  0  0  0  0  0
    9.8292  -17.9292    0.0000 C   0  0  0  0  0  0  0  0  0  0  0  0
    4.7917  -21.6292    0.0000 C   0  0  0  0  0  0  0  0  0  0  0  0
  2  3  1  0
  3 11  2  0
  4  1  2  0
  5  6  2  0
  6  1  1  0
  7 13  1  0
  8  2  1  0
  9  4  1  0
 10  5  1  0
 11  6  1  0
 12  5  1  0
 13  1  1  0
 14  4  1  0
 15 21  1  0
 16  8  1  0
 17 15  1  0
 18 19  1  0
 19 17  1  0
 20  3  1  0
 21 32  1  0
 22 24  1  0
 23 18  1  0
 24 20  2  0
 25 16  1  0
 26  7  1  0
 15 27  1  1
 28 45  1  0
 29 26  1  0
 30 27  1  0
 31 29  2  0
 32 31  1  0
 33 35  1  0
 34 13  2  0
 35 25  2  0
 36 16  2  0
 37 22  1  0
 38 22  1  0
 39 40  1  0
 40 33  2  0
 41 30  2  0
 42 10  1  0
 43 11  1  0
 44 12  1  0
 45 38  1  0
 46 37  1  0
 19 47  1  6
 23 48  1  6
  7 49  1  6
 50 14  1  0
 17 51  1  1
 18 52  1  6
 32 53  1  6
 21 54  1  6
 55 28  1  0
 56 25  1  0
 57 30  1  0
 39 58  1  1
 59 53  1  0
 12 14  2  0
  7  9  1  0
  2 10  2  0
 28 46  1  0
 23 39  1  0
M  END
> <chembl_id>
CHEMBL374478

> <chembl_pref_name>
RIFAMPIN

$$$$

     RDKit          2D

 37 37  0  0  0  0  0  0  0  0999 V2000
   -2.5339  -24.3080    0.0000 C   0  0  0  0  0  0  0  0  0  0  0  0
   -1.8195  -23.8955    0.0000 C   0  0  0  0  0  0  0  0  0  0  0  0
   -1.1050  -24.3080    0.0000 C   0  0  0  0  0  0  0  0  0  0  0  0
   -3.2484  -23.8955    0.0000 O   0  0  0  0  0  0  0  0  0  0  0  0
   -2.5339  -25.1330    0.0000 O   0  0  0  0  0  0  0  0  0  0  0  0
   -0.3905  -23.8955    0.0000 C   0  0  0  0  0  0  0  0  0  0  0  0
   -1.1050  -25.1330    0.0000 O   0  0  0  0  0  0  0  0  0  0  0  0
    0.3240  -24.3080    0.0000 O   0  0  0  0  0  0  0  0  0  0  0  0
   -0.3905  -23.0705    0.0000 O   0  0  0  0  0  0  0  0  0  0  0  0
   -9.3991  -25.7518    0.0000 C   0  0  0  0  0  0  0  0  0  0  0  0
  -10.1136  -26.1643    0.0000 C   0  0  0  0  0  0  0  0  0  0  0  0
  -10.1136  -26.9893    0.0000 C   0  0  0  0  0  0  0  0  0  0  0  0
   -9.3991  -27.4018    0.0000 C   0  0  0  0  0  0  0  0  0  0  0  0
   -8.6846  -26.9893    0.0000 C   0  0  0  0  0  0  0  0  0  0  0  0
   -8.6846  -26.1643    0.0000 C   0  0  0  0  0  0  0  0  0  0  0  0
   -9.3991  -23.9250    0.0000 C   0  0  0  0  0  0  0  0  0  0  0  0
   -8.6846  -23.5125    0.0000 C   0  0  0  0  0  0  0  0  0  0  0  0
   -8.6846  -22.6875    0.0000 C   0  0  0  0  0  0  0  0  0  0  0  0
   -9.3991  -22.2750    0.0000 N   0  0  0  0  0  0  0  0  0  0  0  0
  -10.1136  -22.6875    0.0000 C   0  0  0  0  0  0  0  0  0  0  0  0
  -10.1136  -23.5125    0.0000 C   0  0  0  0  0  0  0  0  0  0  0  0
  -10.8280  -22.2750    0.0000 C   0  0  0  0  0  0  0  0  0  0  0  0
   -7.9702  -22.2750    0.0000 C   0  0  0  0  0  0  0  0  0  0  0  0
   -7.2557  -22.6875    0.0000 O   0  0  0  0  0  0  0  0  0  0  0  0
   -6.5412  -22.2750    0.0000 C   0  0  0  0  0  0  0  0  0  0  0  0
   -5.8268  -22.6875    0.0000 C   0  0  0  0  0  0  0  0  0  0  0  0
   -5.1123  -22.2750    0.0000 N   0  0  0  0  0  0  0  0  0  0  0  0
   -7.9702  -23.9250    0.0000 C   0  0  0  0  0  0  0  0  0  0  0  0
   -7.2557  -23.5125    0.0000 O   0  0  0  0  0  0  0  0  0  0  0  0
   -7.9702  -24.7500    0.0000 O   0  0  0  0  0  0  0  0  0  0  0  0
   -6.5412  -23.9250    0.0000 C   0  0  0  0  0  0  0  0  0  0  0  0
   -5.8268  -23.5125    0.0000 C   0  0  0  0  0  0  0  0  0  0  0  0
  -10.8280  -23.9250    0.0000 C   0  0  0  0  0  0  0  0  0  0  0  0
  -10.8281  -24.7500    0.0000 O   0  0  0  0  0  0  0  0  0  0  0  0
  -11.5425  -23.5125    0.0000 O   0  0  0  0  0  0  0  0  0  0  0  0
  -12.2570  -23.9250    0.0000 C   0  0  0  0  0  0  0  0  0  0  0  0
   -7.9701  -25.7518    0.0000 Cl  0  0  0  0  0  0  0  0  0  0  0  0
  1  2  1  0
  2  3  1  0
  1  4  1  0
  1  5  2  0
  3  6  1  0
  3  7  1  1
  6  8  1  0
  6  9  2  0
 10 11  1  0
 10 15  2  0
 11 12  2  0
 12 13  1  0
 13 14  2  0
 14 15  1  0
 16 10  1  1
 16 17  1  0
 21 16  1  0
 17 18  2  0
 18 19  1  0
 19 20  1  0
 20 21  2  0
 20 22  1  0
 18 23  1  0
 23 24  1  0
 24 25  1  0
 25 26  1  0
 26 27  1  0
 17 28  1  0
 28 29  1  0
 28 30  2  0
 29 31  1  0
 31 32  1  0
 21 33  1  0
 33 34  2  0
 33 35  1  0
 35 36  1  0
 15 37  1  0
M  END
> <chembl_id>
CHEMBL2107350

> <chembl_pref_name>
LEVAMLODIPINE MALATE

$$$$

     RDKit          2D

 14 14  0  0  0  0  0  0  0  0999 V2000
   -2.5532    1.5089    0.0000 C   0  0  0  0  0  0  0  0  0  0  0  0
   -3.2677    1.0964    0.0000 C   0  0  0  0  0  0  0  0  0  0  0  0
   -3.2677    0.2714    0.0000 C   0  0  0  0  0  0  0  0  0  0  0  0
   -2.5532   -0.1411    0.0000 C   0  0  0  0  0  0  0  0  0  0  0  0
   -1.8387    0.2714    0.0000 C   0  0  0  0  0  0  0  0  0  0  0  0
   -1.8387    1.0964    0.0000 C   0  0  0  0  0  0  0  0  0  0  0  0
   -3.9596   -0.1779    0.0000 O   0  0  0  0  0  0  0  0  0  0  0  0
   -1.1243    1.5089    0.0000 C   0  0  0  0  0  0  0  0  0  0  0  0
   -0.4098    1.0964    0.0000 C   0  0  0  0  0  0  0  0  0  0  0  0
    0.3047    1.5089    0.0000 C   0  0  0  0  0  0  0  0  0  0  0  0
    0.3047    2.3339    0.0000 O   0  0  0  0  0  0  0  0  0  0  0  0
    1.0192    1.0964    0.0000 O   0  0  0  0  0  0  0  0  0  0  0  0
   -0.8279    0.4331    0.0000 C   0  0  0  0  0  0  0  0  0  0  0  0
    0.0939    0.4275    0.0000 N   0  0  0  0  0  0  0  0  0  0  0  0
  1  2  1  0
  2  3  2  0
  3  4  1  0
  4  5  2  0
  5  6  1  0
  1  6  2  0
  3  7  1  0
  6  8  1  0
  8  9  1  0
  9 10  1  0
 10 11  2  0
 10 12  1  0
  9 13  1  0
  9 14  1  0
M  END
> <chembl_id>
CHEMBL1330596

> <chembl_pref_name>
RACEMETYROSINE

$$$$

     RDKit          2D

 50 53  0  0  1  0  0  0  0  0999 V2000
    9.6250   -6.6542    0.0000 N   0  0  0  0  0  0  0  0  0  0  0  0
    7.1042   -6.6042    0.0000 C   0  0  0  0  0  0  0  0  0  0  0  0
   10.1917   -6.2417    0.0000 C   0  0  0  0  0  0  0  0  0  0  0  0
    6.5042   -6.2625    0.0000 N   0  0  0  0  0  0  0  0  0  0  0  0
    5.2375   -6.2625    0.0000 C   0  0  0  0  0  0  0  0  0  0  0  0
    9.0167   -6.2417    0.0000 C   0  0  0  0  0  0  0  0  0  0  0  0
    9.9667   -5.5500    0.0000 S   0  0  0  0  0  0  0  0  0  0  0  0
    5.8542   -6.6042    0.0000 C   0  0  0  0  0  0  0  0  0  0  0  0
    0.8417   -6.6042    0.0000 C   0  0  0  0  0  0  0  0  0  0  0  0
    7.7542   -6.2625    0.0000 N   0  0  0  0  0  0  0  0  0  0  0  0
    4.6250   -6.6042    0.0000 N   0  0  0  0  0  0  0  0  0  0  0  0
   -1.9375   -5.5500    0.0000 N   0  0  0  0  0  0  0  0  0  0  0  0
    1.4625   -6.2625    0.0000 N   0  0  0  0  0  0  0  0  0  0  0  0
   -1.0208   -6.2417    0.0000 C   0  0  0  0  0  0  0  0  0  0  0  0
    9.2667   -5.5500    0.0000 C   0  0  0  0  0  0  0  0  0  0  0  0
    2.1125   -6.6375    0.0000 C   0  0  0  0  0  0  0  0  0  0  0  0
   -1.6000   -6.6375    0.0000 S   0  0  0  0  0  0  0  0  0  0  0  0
   -2.1750   -6.2167    0.0000 C   0  0  0  0  0  0  0  0  0  0  0  0
    8.3750   -6.6042    0.0000 C   0  0  0  0  0  0  0  0  0  0  0  0
    3.3292   -6.6042    0.0000 C   0  0  0  0  0  0  0  0  0  0  0  0
    3.9667   -6.2625    0.0000 C   0  0  0  0  0  0  0  0  0  0  0  0
   -1.2500   -5.5500    0.0000 C   0  0  0  0  0  0  0  0  0  0  0  0
    2.7167   -6.2625    0.0000 C   0  0  0  0  0  0  0  0  0  0  0  0
    7.1042   -7.3125    0.0000 O   0  0  0  0  0  0  0  0  0  0  0  0
    5.2375   -5.5500    0.0000 O   0  0  0  0  0  0  0  0  0  0  0  0
    0.8417   -7.2917    0.0000 O   0  0  0  0  0  0  0  0  0  0  0  0
    2.1125   -7.3792    0.0000 C   0  0  0  0  0  0  0  0  0  0  0  0
    0.2125   -6.2625    0.0000 O   0  0  0  0  0  0  0  0  0  0  0  0
   10.8042   -6.5917    0.0000 C   0  0  0  0  0  0  0  0  0  0  0  0
   -0.3958   -6.5917    0.0000 C   0  0  0  0  0  0  0  0  0  0  0  0
    3.9667   -5.5417    0.0000 C   0  0  0  0  0  0  0  0  0  0  0  0
    5.8542   -7.3250    0.0000 C   0  0  0  0  0  0  0  0  0  0  0  0
    2.7125   -7.7417    0.0000 C   0  0  0  0  0  0  0  0  0  0  0  0
    2.7167   -5.6000    0.0000 O   0  0  0  0  0  0  0  0  0  0  0  0
    4.2625   -4.9167    0.0000 C   0  0  0  0  0  0  0  0  0  0  0  0
    7.7542   -5.5292    0.0000 C   0  0  0  0  0  0  0  0  0  0  0  0
   10.8042   -7.3125    0.0000 C   0  0  0  0  0  0  0  0  0  0  0  0
   11.4417   -6.1917    0.0000 C   0  0  0  0  0  0  0  0  0  0  0  0
    5.2875   -7.6542    0.0000 C   0  0  0  0  0  0  0  0  0  0  0  0
    6.4500   -7.6542    0.0000 C   0  0  0  0  0  0  0  0  0  0  0  0
    2.7125   -8.4417    0.0000 C   0  0  0  0  0  0  0  0  0  0  0  0
    3.2667   -7.3792    0.0000 C   0  0  0  0  0  0  0  0  0  0  0  0
    3.8792   -4.3292    0.0000 C   0  0  0  0  0  0  0  0  0  0  0  0
    4.9667   -4.8917    0.0000 C   0  0  0  0  0  0  0  0  0  0  0  0
    4.1875   -3.6792    0.0000 C   0  0  0  0  0  0  0  0  0  0  0  0
    5.2792   -4.2583    0.0000 C   0  0  0  0  0  0  0  0  0  0  0  0
    3.2667   -8.8042    0.0000 C   0  0  0  0  0  0  0  0  0  0  0  0
    3.8667   -7.7417    0.0000 C   0  0  0  0  0  0  0  0  0  0  0  0
    3.8667   -8.4417    0.0000 C   0  0  0  0  0  0  0  0  0  0  0  0
    4.9042   -3.6792    0.0000 C   0  0  0  0  0  0  0  0  0  0  0  0
  2 10  1  0
  3  1  2  0
  4  2  1  0
  5  8  1  0
  6  1  1  0
  7  3  1  0
  8  4  1  0
  9 13  1  0
 10 19  1  0
 11  5  1  0
 12 22  1  0
 13 16  1  0
 14 30  1  0
 15  6  2  0
 16 23  1  0
 17 14  1  0
 18 17  1  0
 19  6  1  0
 20 21  1  0
 21 11  1  0
 22 14  2  0
 23 20  1  0
 24  2  2  0
 25  5  2  0
 26  9  2  0
 16 27  1  6
 28  9  1  0
 29  3  1  0
 30 28  1  0
 21 31  1  6
  8 32  1  1
 33 27  1  0
 23 34  1  1
 35 31  1  0
 36 10  1  0
 37 29  1  0
 38 29  1  0
 39 32  1  0
 40 32  1  0
 41 33  1  0
 42 33  2  0
 43 35  1  0
 44 35  2  0
 45 43  2  0
 46 44  1  0
 47 41  2  0
 48 42  1  0
 49 48  2  0
 50 46  2  0
  7 15  1  0
 50 45  1  0
 49 47  1  0
 18 12  2  0
M  END
> <chembl_id>
CHEMBL163

> <chembl_pref_name>
RITONAVIR

$$$$

     RDKit          2D

 35 39  0  0  1  0  0  0  0  0999 V2000
    0.6417    0.6458    0.0000 C   0  0  0  0  0  0  0  0  0  0  0  0
    1.8792    1.3458    0.0000 C   0  0  0  0  0  0  0  0  0  0  0  0
    0.0292    0.2833    0.0000 C   0  0  0  0  0  0  0  0  0  0  0  0
    1.2542    0.2833    0.0000 C   0  0  0  0  0  0  0  0  0  0  0  0
    0.6417    1.3500    0.0000 C   0  0  0  0  0  0  0  0  0  0  0  0
    1.8667    0.6375    0.0000 C   0  0  0  0  0  0  0  0  0  0  0  0
    0.0292   -0.4250    0.0000 C   0  0  0  0  0  0  0  0  0  0  0  0
    1.2625    1.7083    0.0000 C   0  0  0  0  0  0  0  0  0  0  0  0
    2.4917    1.7000    0.0000 C   0  0  0  0  0  0  0  0  0  0  0  0
   -0.5833   -0.7792    0.0000 C   0  0  0  0  0  0  0  0  0  0  0  0
    1.2542   -0.4167    0.0000 C   0  0  0  0  0  0  0  0  0  0  0  0
   -0.5833    0.6375    0.0000 C   0  0  0  0  0  0  0  0  0  0  0  0
    3.0917    0.6208    0.0000 C   0  0  0  0  0  0  0  0  0  0  0  0
    0.0292    1.7083    0.0000 C   0  0  0  0  0  0  0  0  0  0  0  0
    0.6417   -0.7750    0.0000 C   0  0  0  0  0  0  0  0  0  0  0  0
   -1.1875   -0.4250    0.0000 C   0  0  0  0  0  0  0  0  0  0  0  0
    3.1042    1.3333    0.0000 C   0  0  0  0  0  0  0  0  0  0  0  0
   -2.4208    2.4208    0.0000 N   0  0  0  0  0  0  0  0  0  0  0  0
   -1.8083   -0.7750    0.0000 O   0  0  0  0  0  0  0  0  0  0  0  0
    0.0292    2.4125    0.0000 C   0  0  0  0  0  0  0  0  0  0  0  0
   -0.5833    1.3500    0.0000 C   0  0  0  0  0  0  0  0  0  0  0  0
   -1.1875    0.2833    0.0000 C   0  0  0  0  0  0  0  0  0  0  0  0
   -1.8083    2.7708    0.0000 C   0  0  0  0  0  0  0  0  0  0  0  0
    1.8750    2.0583    0.0000 C   0  0  0  0  0  0  0  0  0  0  0  0
   -1.1958    2.4208    0.0000 C   0  0  0  0  0  0  0  0  0  0  0  0
    2.8417    2.3125    0.0000 O   0  0  0  0  0  0  0  0  0  0  0  0
   -3.0333    2.7708    0.0000 O   0  0  0  0  0  0  0  0  0  0  0  0
   -1.1958    1.7083    0.0000 C   0  0  0  0  0  0  0  0  0  0  0  0
   -0.5833    2.7708    0.0000 C   0  0  0  0  0  0  0  0  0  0  0  0
    2.1417    2.3208    0.0000 C   0  0  0  0  0  0  0  0  0  0  0  0
    2.5042    2.9250    0.0000 O   0  0  0  0  0  0  0  0  0  0  0  0
    3.5500    2.3208    0.0000 C   0  0  0  0  0  0  0  0  0  0  0  0
    2.1542    3.5458    0.0000 C   0  0  0  0  0  0  0  0  0  0  0  0
    1.8667   -0.0667    0.0000 H   0  0  0  0  0  0  0  0  0  0  0  0
    1.2542    0.9958    0.0000 H   0  0  0  0  0  0  0  0  0  0  0  0
  2  8  1  0
  3  1  2  0
  4  1  1  0
  5  1  1  0
  6  4  1  0
  7  3  1  0
  8  5  1  0
  9  2  1  0
 10  7  2  0
 11  4  1  0
 12  3  1  0
 13  6  1  0
  5 14  1  1
 15 11  1  0
 16 22  1  0
 17 13  1  0
 18 23  2  0
 19 16  2  0
 20 14  2  0
 21 14  1  0
 22 12  1  0
 23 25  1  0
  2 24  1  1
 25 28  1  0
  9 26  1  1
 27 18  1  0
 28 21  2  0
 29 20  1  0
 30  9  1  0
 31 30  1  0
 32 26  1  0
 33 31  1  0
  6 34  1  6
  4 35  1  1
  6  2  1  0
 15  7  1  0
 25 29  2  0
  9 17  1  0
 16 10  1  0
M  END
> <chembl_id>
CHEMBL267431

> <chembl_pref_name>
ASOPRISNIL

$$$$

     RDKit          2D

 22 24  0  0  0  0  0  0  0  0999 V2000
   -0.6958   -1.5792    0.0000 C   0  0  0  0  0  0  0  0  0  0  0  0
    0.0167   -0.6500    0.0000 C   0  0  0  0  0  0  0  0  0  0  0  0
    0.6667   -3.2542    0.0000 S   0  0  0  0  0  0  0  0  0  0  0  0
   -0.4083   -2.7417    0.0000 C   0  0  0  0  0  0  0  0  0  0  0  0
    1.2042   -0.6500    0.0000 C   0  0  0  0  0  0  0  0  0  0  0  0
    1.7167   -2.7292    0.0000 C   0  0  0  0  0  0  0  0  0  0  0  0
    1.9542   -1.5667    0.0000 C   0  0  0  0  0  0  0  0  0  0  0  0
   -1.8500   -1.2542    0.0000 C   0  0  0  0  0  0  0  0  0  0  0  0
   -1.2833   -3.5917    0.0000 C   0  0  0  0  0  0  0  0  0  0  0  0
   -0.5208    0.4000    0.0000 O   0  0  0  0  0  0  0  0  0  0  0  0
   -2.7208   -2.0792    0.0000 C   0  0  0  0  0  0  0  0  0  0  0  0
   -1.5708    2.5000    0.0000 N   0  0  0  0  0  0  0  0  0  0  0  0
   -2.4375   -3.2375    0.0000 C   0  0  0  0  0  0  0  0  0  0  0  0
   -3.8625   -1.7417    0.0000 Cl  0  0  0  0  0  0  0  0  0  0  0  0
   -1.7000    0.4500    0.0000 C   0  0  0  0  0  0  0  0  0  0  0  0
    2.6375   -3.5250    0.0000 C   0  0  0  0  0  0  0  0  0  0  0  0
    3.1167   -1.1917    0.0000 C   0  0  0  0  0  0  0  0  0  0  0  0
   -2.2333    1.5000    0.0000 C   0  0  0  0  0  0  0  0  0  0  0  0
   -2.0833    3.5958    0.0000 C   0  0  0  0  0  0  0  0  0  0  0  0
   -0.3958    2.4208    0.0000 C   0  0  0  0  0  0  0  0  0  0  0  0
    4.0125   -1.9875    0.0000 C   0  0  0  0  0  0  0  0  0  0  0  0
    3.7667   -3.1417    0.0000 C   0  0  0  0  0  0  0  0  0  0  0  0
  2  1  1  0
  3  4  1  0
  4  1  2  0
  5  2  2  0
  6  3  1  0
  7  5  1  0
  8  1  1  0
  9  4  1  0
 10  2  1  0
 11  8  2  0
 12 18  1  0
 13 11  1  0
 14 11  1  0
 15 10  1  0
 16  6  1  0
 17  7  1  0
 18 15  1  0
 19 12  1  0
 20 12  1  0
 21 17  2  0
 22 16  2  0
  9 13  2  0
  6  7  2  0
 22 21  1  0
M  END
> <chembl_id>
CHEMBL285802

> <chembl_pref_name>
ZOTEPINE

$$$$

     RDKit          2D

 21 23  0  0  0  0  0  0  0  0999 V2000
    0.8167   -8.0625    0.0000 C   0  0  0  0  0  0  0  0  0  0  0  0
    0.1417   -7.7542    0.0000 C   0  0  0  0  0  0  0  0  0  0  0  0
    1.4792   -7.7542    0.0000 C   0  0  0  0  0  0  0  0  0  0  0  0
    0.4042   -6.3250    0.0000 S   0  0  0  0  0  0  0  0  0  0  0  0
   -0.0583   -6.9792    0.0000 C   0  0  0  0  0  0  0  0  0  0  0  0
    0.8167   -8.8375    0.0000 C   0  0  0  0  0  0  0  0  0  0  0  0
    1.7000   -6.9500    0.0000 C   0  0  0  0  0  0  0  0  0  0  0  0
    1.2542   -6.3250    0.0000 C   0  0  0  0  0  0  0  0  0  0  0  0
    2.8417   -9.2375    0.0000 N   0  0  0  0  0  0  0  0  0  0  0  0
    1.5042   -9.2375    0.0000 C   0  0  0  0  0  0  0  0  0  0  0  0
    2.0375   -8.2792    0.0000 C   0  0  0  0  0  0  0  0  0  0  0  0
   -0.4208   -8.3000    0.0000 C   0  0  0  0  0  0  0  0  0  0  0  0
    2.1750   -8.8542    0.0000 C   0  0  0  0  0  0  0  0  0  0  0  0
   -0.8125   -6.7750    0.0000 C   0  0  0  0  0  0  0  0  0  0  0  0
    2.4375   -6.7542    0.0000 C   0  0  0  0  0  0  0  0  0  0  0  0
    3.5292   -8.8542    0.0000 C   0  0  0  0  0  0  0  0  0  0  0  0
    2.8417  -10.0125    0.0000 C   0  0  0  0  0  0  0  0  0  0  0  0
    2.7792   -8.0750    0.0000 C   0  0  0  0  0  0  0  0  0  0  0  0
   -1.1625   -8.0875    0.0000 C   0  0  0  0  0  0  0  0  0  0  0  0
   -1.3583   -7.3292    0.0000 C   0  0  0  0  0  0  0  0  0  0  0  0
    2.9875   -7.3167    0.0000 C   0  0  0  0  0  0  0  0  0  0  0  0
  2  1  1  0
  3  1  1  0
  4  5  1  0
  5  2  1  0
  6  1  2  0
  7  3  1  0
  8  7  1  0
  9 13  1  0
 10  6  1  0
 11  3  2  0
 12  2  2  0
 13 10  1  0
 14  5  2  0
 15  7  2  0
 16  9  1  0
 17  9  1  0
 18 11  1  0
 19 12  1  0
 20 19  2  0
 21 18  2  0
  4  8  1  0
 21 15  1  0
 20 14  1  0
M  END
> <chembl_id>
CHEMBL1492500

> <chembl_pref_name>
DOTHIEPIN

$$$$

     RDKit          2D

 34 38  0  0  1  0  0  0  0  0999 V2000
    3.4042   -2.1292    0.0000 C   0  0  0  0  0  0  0  0  0  0  0  0
    2.7917   -2.4917    0.0000 C   0  0  0  0  0  0  0  0  0  0  0  0
    3.4167   -3.5500    0.0000 N   0  0  0  0  0  0  0  0  0  0  0  0
    0.9417   -1.4375    0.0000 C   0  0  0  0  0  0  0  0  0  0  0  0
    4.0292   -3.1917    0.0000 C   0  0  0  0  0  0  0  0  0  0  0  0
    4.0292   -2.4792    0.0000 C   0  0  0  0  0  0  0  0  0  0  0  0
    2.8000   -3.2000    0.0000 C   0  0  0  0  0  0  0  0  0  0  0  0
    0.9417   -2.1417    0.0000 C   0  0  0  0  0  0  0  0  0  0  0  0
    1.5625   -2.4917    0.0000 C   0  0  0  0  0  0  0  0  0  0  0  0
    0.3167   -1.0792    0.0000 N   0  0  0  0  0  0  0  0  0  0  0  0
    2.1750   -2.1375    0.0000 C   0  0  0  0  0  0  0  0  0  0  0  0
    1.1667   -0.3167    0.0000 N   0  0  0  0  0  0  0  0  0  0  0  0
    3.4000   -1.4167    0.0000 C   0  0  0  0  0  0  0  0  0  0  0  0
    0.4625   -0.3917    0.0000 C   0  0  0  0  0  0  0  0  0  0  0  0
    1.4667   -0.9625    0.0000 C   0  0  0  0  0  0  0  0  0  0  0  0
    2.1875   -3.5542    0.0000 C   0  0  0  0  0  0  0  0  0  0  0  0
    0.3375   -2.5042    0.0000 C   0  0  0  0  0  0  0  0  0  0  0  0
    1.5625   -3.2042    0.0000 C   0  0  0  0  0  0  0  0  0  0  0  0
    4.6417   -3.5417    0.0000 O   0  0  0  0  0  0  0  0  0  0  0  0
    4.0042   -1.0542    0.0000 C   0  0  0  0  0  0  0  0  0  0  0  0
    1.5542   -1.7917    0.0000 N   0  0  0  0  0  0  0  0  0  0  0  0
   -0.2833   -2.1542    0.0000 C   0  0  0  0  0  0  0  0  0  0  0  0
    0.3417   -3.2125    0.0000 C   0  0  0  0  0  0  0  0  0  0  0  0
    4.0042   -0.3417    0.0000 C   0  0  0  0  0  0  0  0  0  0  0  0
    3.4292   -4.2667    0.0000 C   0  0  0  0  0  0  0  0  0  0  0  0
   -0.8875   -3.2167    0.0000 C   0  0  0  0  0  0  0  0  0  0  0  0
   -0.2708   -3.5750    0.0000 C   0  0  0  0  0  0  0  0  0  0  0  0
   -0.8958   -2.5125    0.0000 C   0  0  0  0  0  0  0  0  0  0  0  0
    4.6292    0.0208    0.0000 Cl  0  0  0  0  0  0  0  0  0  0  0  0
   -1.5125   -3.5792    0.0000 Cl  0  0  0  0  0  0  0  0  0  0  0  0
   -0.3333   -1.3667    0.0000 C   0  0  0  0  0  0  0  0  0  0  0  0
    2.7792   -1.0625    0.0000 C   0  0  0  0  0  0  0  0  0  0  0  0
    2.7750   -0.3542    0.0000 C   0  0  0  0  0  0  0  0  0  0  0  0
    3.3875    0.0083    0.0000 C   0  0  0  0  0  0  0  0  0  0  0  0
  2  1  1  0
  3  5  1  0
  4  8  1  0
  5  6  1  0
  6  1  2  0
  7  2  2  0
  8  9  1  0
  9 11  2  0
 10  4  1  0
 11  2  1  0
 12 15  1  0
 13  1  1  0
 14 10  1  0
 15  4  2  0
 16  7  1  0
 17  8  1  0
 18  9  1  0
 19  5  2  0
 20 13  1  0
  8 21  1  1
 22 17  2  0
 23 17  1  0
 24 20  2  0
 25  3  1  0
 26 27  1  0
 27 23  2  0
 28 22  1  0
 29 24  1  0
 30 26  1  0
 31 10  1  0
 32 13  2  0
 33 32  1  0
 34 33  2  0
  7  3  1  0
 24 34  1  0
 16 18  2  0
 28 26  2  0
 14 12  2  0
M  END
> <chembl_id>
CHEMBL289228

> <chembl_pref_name>
TIPIFARNIB

$$$$

     RDKit          2D

  2  1  0  0  0  0  0  0  0  0999 V2000
    0.5250   -0.3750    0.0000 O   0  0  0  0  0  0  0  0  0  0  0  0
    1.2292   -0.3750    0.0000 O   0  0  0  0  0  0  0  0  0  0  0  0
  2  1  2  0
M  END
> <chembl_id>
CHEMBL1234886

> <chembl_pref_name>
OXYGEN

$$$$

     RDKit          2D

 38 42  0  0  0  0  0  0  0  0999 V2000
    5.3600   -1.4167    0.0000 C   0  0  0  0  0  0  0  0  0  0  0  0
    5.3600   -2.2417    0.0000 C   0  0  0  0  0  0  0  0  0  0  0  0
    6.0745   -2.6542    0.0000 C   0  0  0  0  0  0  0  0  0  0  0  0
    6.7889   -2.2417    0.0000 C   0  0  0  0  0  0  0  0  0  0  0  0
    6.7889   -1.4167    0.0000 C   0  0  0  0  0  0  0  0  0  0  0  0
    6.0745   -1.0042    0.0000 C   0  0  0  0  0  0  0  0  0  0  0  0
    7.5034   -2.6542    0.0000 C   0  0  0  0  0  0  0  0  0  0  0  0
    8.2179   -2.2417    0.0000 C   0  0  0  0  0  0  0  0  0  0  0  0
    8.2179   -1.4167    0.0000 C   0  0  0  0  0  0  0  0  0  0  0  0
    7.5034   -1.0042    0.0000 C   0  0  0  0  0  0  0  0  0  0  0  0
    8.9324   -1.0042    0.0000 C   0  0  0  0  0  0  0  0  0  0  0  0
    8.9324   -0.1792    0.0000 C   0  0  0  0  0  0  0  0  0  0  0  0
    8.2179    0.2333    0.0000 C   0  0  0  0  0  0  0  0  0  0  0  0
    7.5034   -0.1792    0.0000 C   0  0  0  0  0  0  0  0  0  0  0  0
    9.7170   -1.2591    0.0000 C   0  0  0  0  0  0  0  0  0  0  0  0
   10.2019   -0.5917    0.0000 C   0  0  0  0  0  0  0  0  0  0  0  0
    9.7170    0.0757    0.0000 C   0  0  0  0  0  0  0  0  0  0  0  0
    6.7889    0.2333    0.0000 C   0  0  0  0  0  0  0  0  0  0  0  0
    6.7889    1.0583    0.0000 C   0  0  0  0  0  0  0  0  0  0  0  0
    6.0745    1.4708    0.0000 C   0  0  0  0  0  0  0  0  0  0  0  0
    5.3600    1.0583    0.0000 C   0  0  0  0  0  0  0  0  0  0  0  0
    5.3600    0.2333    0.0000 C   0  0  0  0  0  0  0  0  0  0  0  0
    6.0745   -0.1792    0.0000 C   0  0  0  0  0  0  0  0  0  0  0  0
    4.6455   -2.6542    0.0000 O   0  0  0  0  0  0  0  0  0  0  0  0
    8.9324    0.6458    0.0000 C   0  0  0  0  0  0  0  0  0  0  0  0
   10.5420    0.0757    0.0000 C   0  0  0  0  0  0  0  0  0  0  0  0
    9.9305    0.8726    0.0000 O   0  0  0  0  0  0  0  0  0  0  0  0
   10.9545   -0.6387    0.0000 F   0  0  0  0  0  0  0  0  0  0  0  0
   11.3670    0.0757    0.0000 F   0  0  0  0  0  0  0  0  0  0  0  0
    4.6455    1.4708    0.0000 C   0  0  0  0  0  0  0  0  0  0  0  0
    3.9311    1.0583    0.0000 C   0  0  0  0  0  0  0  0  0  0  0  0
    4.6455    2.2958    0.0000 O   0  0  0  0  0  0  0  0  0  0  0  0
   10.9545    0.7902    0.0000 C   0  0  0  0  0  0  0  0  0  0  0  0
   10.5420    1.5047    0.0000 F   0  0  0  0  0  0  0  0  0  0  0  0
   11.7795    0.7902    0.0000 F   0  0  0  0  0  0  0  0  0  0  0  0
   11.1667    1.5917    0.0000 F   0  0  0  0  0  0  0  0  0  0  0  0
    9.0369   -1.9987    0.0000 H   0  0  0  0  0  0  0  0  0  0  0  0
    9.0839   -1.9167    0.0000 H   0  0  0  0  0  0  0  0  0  0  0  0
  4  5  1  0
  5  6  1  0
  6  1  1  0
  4  7  1  0
  7  8  1  0
  8  9  1  0
  9 10  1  0
 10  5  2  0
  9 11  1  0
 11 12  1  0
 12 13  1  0
 13 14  1  0
 14 10  1  0
 11 15  1  0
 15 16  1  0
 16 17  1  0
 17 12  1  0
 14 18  1  1
 18 19  1  0
 19 20  2  0
 20 21  1  0
 21 22  2  0
 22 23  1  0
 23 18  2  0
  2 24  2  0
 12 25  1  1
 17 26  1  0
 17 27  1  1
 26 28  1  0
 26 29  1  0
 21 30  1  0
 30 31  1  0
 30 32  2  0
 26 33  1  0
  1  2  1  0
 33 34  1  0
  2  3  1  0
 33 35  1  0
  3  4  2  0
 33 36  1  0
 11 37  1  6
  9 38  1  1
M  END
> <chembl_id>
CHEMBL146032

> <chembl_pref_name>
LONAPRISAN

$$$$

     RDKit          2D

 35 37  0  0  0  0  0  0  0  0999 V2000
   -2.3500   -1.7636    0.0000 C   0  0  0  0  0  0  0  0  0  0  0  0
   -2.0144   -2.5173    0.0000 C   0  0  0  0  0  0  0  0  0  0  0  0
   -1.1939   -2.6035    0.0000 C   0  0  0  0  0  0  0  0  0  0  0  0
   -0.7090   -1.9361    0.0000 C   0  0  0  0  0  0  0  0  0  0  0  0
   -1.0446   -1.1824    0.0000 C   0  0  0  0  0  0  0  0  0  0  0  0
   -1.8651   -1.0962    0.0000 C   0  0  0  0  0  0  0  0  0  0  0  0
   -0.1472    3.2296    0.0000 C   0  0  0  0  0  0  0  0  0  0  0  0
   -0.8617    2.8171    0.0000 C   0  0  0  0  0  0  0  0  0  0  0  0
   -0.8617    1.9921    0.0000 C   0  0  0  0  0  0  0  0  0  0  0  0
   -0.1472    1.5796    0.0000 C   0  0  0  0  0  0  0  0  0  0  0  0
    0.5672    1.9921    0.0000 C   0  0  0  0  0  0  0  0  0  0  0  0
    0.5672    2.8171    0.0000 C   0  0  0  0  0  0  0  0  0  0  0  0
   -0.8147    0.2696    0.0000 C   0  0  0  0  0  0  0  0  0  0  0  0
   -0.5597   -0.5150    0.0000 N   0  0  0  0  0  0  0  0  0  0  0  0
    0.2653   -0.5150    0.0000 C   0  0  0  0  0  0  0  0  0  0  0  0
    0.5202    0.2697    0.0000 C   0  0  0  0  0  0  0  0  0  0  0  0
   -0.1472    0.7546    0.0000 N   0  0  0  0  0  0  0  0  0  0  0  0
   -1.5993    0.5246    0.0000 S   0  0  0  0  0  0  0  0  0  0  0  0
    0.7502   -1.1824    0.0000 O   0  0  0  0  0  0  0  0  0  0  0  0
    1.0086    0.9346    0.0000 C   0  0  0  0  0  0  0  0  0  0  0  0
    1.3061    0.0189    0.0000 C   0  0  0  0  0  0  0  0  0  0  0  0
   -3.1705   -1.6774    0.0000 C   0  0  0  0  0  0  0  0  0  0  0  0
   -3.0843   -0.8569    0.0000 F   0  0  0  0  0  0  0  0  0  0  0  0
   -3.2567   -2.4979    0.0000 F   0  0  0  0  0  0  0  0  0  0  0  0
   -3.9910   -1.5912    0.0000 F   0  0  0  0  0  0  0  0  0  0  0  0
   -2.4994   -3.1847    0.0000 C   0  0  0  0  0  0  0  0  0  0  0  0
   -2.9843   -3.8522    0.0000 N   0  0  0  0  0  0  0  0  0  0  0  0
    1.2817    3.2296    0.0000 F   0  0  0  0  0  0  0  0  0  0  0  0
   -0.1472    4.0546    0.0000 C   0  0  0  0  0  0  0  0  0  0  0  0
    0.5673    4.4671    0.0000 O   0  0  0  0  0  0  0  0  0  0  0  0
   -0.8617    4.4671    0.0000 N   0  0  0  0  0  0  0  0  0  0  0  0
   -0.8617    5.2921    0.0000 C   0  0  0  0  0  0  0  0  0  0  0  0
   -1.6867    5.2921    0.0000 H   0  0  0  0  0  0  0  0  0  0  0  0
   -0.0367    5.2921    0.0000 H   0  0  0  0  0  0  0  0  0  0  0  0
   -0.8617    6.1171    0.0000 H   0  0  0  0  0  0  0  0  0  0  0  0
  1  2  1  0
  2  3  2  0
  3  4  1  0
  4  5  2  0
  5  6  1  0
  1  6  2  0
  7  8  2  0
  8  9  1  0
  9 10  2  0
 10 11  1  0
 11 12  2  0
  7 12  1  0
 13 14  1  0
 14 15  1  0
 15 16  1  0
 16 17  1  0
 13 17  1  0
  5 14  1  0
 10 17  1  0
 13 18  2  0
 15 19  2  0
 16 20  1  0
 16 21  1  0
  1 22  1  0
 22 23  1  0
 22 24  1  0
 22 25  1  0
  2 26  1  0
 26 27  3  0
 12 28  1  0
  7 29  1  0
 29 30  2  0
 29 31  1  0
 31 32  1  0
 32 33  1  0
 32 34  1  0
 32 35  1  0
M  ISO  3  33   2  34   2  35   2
M  END
> <chembl_id>
CHEMBL4594421

> <chembl_pref_name>
DEUTENZALUTAMIDE

$$$$

     RDKit          2D

 47 52  0  0  1  0  0  0  0  0999 V2000
    0.8292   -8.9375    0.0000 C   0  0  0  0  0  0  0  0  0  0  0  0
    0.1542   -9.1542    0.0000 N   0  0  0  0  0  0  0  0  0  0  0  0
    0.8292   -8.2292    0.0000 C   0  0  0  0  0  0  0  0  0  0  0  0
    2.0417  -11.0417    0.0000 C   0  0  0  0  0  0  0  0  0  0  0  0
    2.0500  -10.3417    0.0000 C   0  0  0  0  0  0  0  0  0  0  0  0
    1.4417   -9.2875    0.0000 C   0  0  0  0  0  0  0  0  0  0  0  0
    2.0542   -8.9375    0.0000 N   0  0  0  0  0  0  0  0  0  0  0  0
   -0.2625   -8.5875    0.0000 C   0  0  0  0  0  0  0  0  0  0  0  0
    0.1542   -8.0167    0.0000 C   0  0  0  0  0  0  0  0  0  0  0  0
    2.6625   -9.9917    0.0000 C   0  0  0  0  0  0  0  0  0  0  0  0
    3.2667  -11.0542    0.0000 C   0  0  0  0  0  0  0  0  0  0  0  0
    4.4917  -11.0542    0.0000 C   0  0  0  0  0  0  0  0  0  0  0  0
    1.4375   -9.9917    0.0000 C   0  0  0  0  0  0  0  0  0  0  0  0
    2.6542  -11.4000    0.0000 C   0  0  0  0  0  0  0  0  0  0  0  0
    5.1042  -11.4167    0.0000 C   0  0  0  0  0  0  0  0  0  0  0  0
    6.3250  -12.1292    0.0000 C   0  0  0  0  0  0  0  0  0  0  0  0
    1.4292  -11.3917    0.0000 C   0  0  0  0  0  0  0  0  0  0  0  0
    3.8792  -11.4042    0.0000 O   0  0  0  0  0  0  0  0  0  0  0  0
    2.6667   -9.2875    0.0000 C   0  0  0  0  0  0  0  0  0  0  0  0
    6.3250  -11.4167    0.0000 C   0  0  0  0  0  0  0  0  0  0  0  0
    5.7042  -12.4792    0.0000 C   0  0  0  0  0  0  0  0  0  0  0  0
    3.2667  -10.3417    0.0000 C   0  0  0  0  0  0  0  0  0  0  0  0
    1.4417   -7.8750    0.0000 C   0  0  0  0  0  0  0  0  0  0  0  0
    5.7167  -11.0667    0.0000 C   0  0  0  0  0  0  0  0  0  0  0  0
    5.1000  -12.1250    0.0000 C   0  0  0  0  0  0  0  0  0  0  0  0
   -0.9583   -8.5167    0.0000 C   0  0  0  0  0  0  0  0  0  0  0  0
   -0.1333   -7.3750    0.0000 C   0  0  0  0  0  0  0  0  0  0  0  0
    2.0542   -8.2292    0.0000 C   0  0  0  0  0  0  0  0  0  0  0  0
    4.4917  -10.3500    0.0000 O   0  0  0  0  0  0  0  0  0  0  0  0
    1.4292  -12.1042    0.0000 O   0  0  0  0  0  0  0  0  0  0  0  0
   -1.2500   -7.8792    0.0000 C   0  0  0  0  0  0  0  0  0  0  0  0
    6.9375  -12.4875    0.0000 O   0  0  0  0  0  0  0  0  0  0  0  0
   -0.8375   -7.3000    0.0000 C   0  0  0  0  0  0  0  0  0  0  0  0
    2.6500  -12.1042    0.0000 O   0  0  0  0  0  0  0  0  0  0  0  0
    0.8167  -11.0375    0.0000 O   0  0  0  0  0  0  0  0  0  0  0  0
    6.9417  -11.0667    0.0000 O   0  0  0  0  0  0  0  0  0  0  0  0
    5.7042  -13.1917    0.0000 O   0  0  0  0  0  0  0  0  0  0  0  0
   -1.9583   -7.8042    0.0000 O   0  0  0  0  0  0  0  0  0  0  0  0
    6.9292  -13.1917    0.0000 C   0  0  0  0  0  0  0  0  0  0  0  0
    2.0292  -12.4542    0.0000 C   0  0  0  0  0  0  0  0  0  0  0  0
    7.5542  -11.4167    0.0000 C   0  0  0  0  0  0  0  0  0  0  0  0
    5.0875  -13.5417    0.0000 C   0  0  0  0  0  0  0  0  0  0  0  0
    0.2042  -11.3875    0.0000 C   0  0  0  0  0  0  0  0  0  0  0  0
   -2.2458   -7.1625    0.0000 C   0  0  0  0  0  0  0  0  0  0  0  0
    0.8250   -9.6375    0.0000 H   0  0  0  0  0  0  0  0  0  0  0  0
    1.4292  -10.6917    0.0000 H   0  0  0  0  0  0  0  0  0  0  0  0
    3.2750   -9.6375    0.0000 H   0  0  0  0  0  0  0  0  0  0  0  0
  2  1  1  0
  3  1  2  0
  4  5  1  0
  5 13  1  0
  6  1  1  0
  7  6  1  0
  8  2  1  0
  9  3  1  0
 10  5  1  0
 11 22  1  0
 12 18  1  0
 13  6  1  0
 14  4  1  0
 15 12  1  0
 16 21  2  0
  4 17  1  1
 11 18  1  1
 19  7  1  0
 20 24  2  0
 21 25  1  0
 22 10  1  0
 23  3  1  0
 24 15  1  0
 25 15  2  0
 26  8  1  0
 27  9  1  0
 28  7  1  0
 29 12  2  0
 30 17  2  0
 31 26  2  0
 32 16  1  0
 33 27  2  0
 14 34  1  6
 35 17  1  0
 36 20  1  0
 37 21  1  0
 38 31  1  0
 39 32  1  0
 40 34  1  0
 41 36  1  0
 42 37  1  0
 43 35  1  0
 44 38  1  0
  6 45  1  1
  5 46  1  6
 10 47  1  6
  9  8  2  0
 23 28  1  0
 19 10  1  0
 31 33  1  0
 11 14  1  0
 20 16  1  0
M  END
> <chembl_id>
CHEMBL772

> <chembl_pref_name>
RESERPINE

$$$$

     RDKit          2D

 32 34  0  0  1  0  0  0  0  0999 V2000
    0.0167   -3.1375    0.0000 C   0  0  0  0  0  0  0  0  0  0  0  0
    0.0167   -3.8625    0.0000 C   0  0  0  0  0  0  0  0  0  0  0  0
    0.7167   -2.9500    0.0000 C   0  0  0  0  0  0  0  0  0  0  0  0
   -0.6083   -4.2250    0.0000 C   0  0  0  0  0  0  0  0  0  0  0  0
   -0.6083   -4.9167    0.0000 C   0  0  0  0  0  0  0  0  0  0  0  0
   -1.1958   -5.9625    0.0000 C   0  0  0  0  0  0  0  0  0  0  0  0
    1.3167   -1.9125    0.0000 C   0  0  0  0  0  0  0  0  0  0  0  0
    1.9292   -2.2625    0.0000 C   0  0  0  0  0  0  0  0  0  0  0  0
    0.7167   -4.0708    0.0000 C   0  0  0  0  0  0  0  0  0  0  0  0
    1.1042   -3.5042    0.0000 C   0  0  0  0  0  0  0  0  0  0  0  0
   -1.1958   -5.2792    0.0000 C   0  0  0  0  0  0  0  0  0  0  0  0
    3.1417   -2.2625    0.0000 C   0  0  0  0  0  0  0  0  0  0  0  0
    0.7167   -2.2625    0.0000 C   0  0  0  0  0  0  0  0  0  0  0  0
   -1.1958   -7.3917    0.0000 C   0  0  0  0  0  0  0  0  0  0  0  0
    2.5167   -1.9125    0.0000 C   0  0  0  0  0  0  0  0  0  0  0  0
   -0.5708   -7.0292    0.0000 C   0  0  0  0  0  0  0  0  0  0  0  0
   -1.8208   -7.0292    0.0000 C   0  0  0  0  0  0  0  0  0  0  0  0
   -1.8208   -6.3250    0.0000 C   0  0  0  0  0  0  0  0  0  0  0  0
   -0.5708   -6.3250    0.0000 C   0  0  0  0  0  0  0  0  0  0  0  0
   -0.6083   -2.8000    0.0000 C   0  0  0  0  0  0  0  0  0  0  0  0
    0.0167   -2.5000    0.0000 C   0  0  0  0  0  0  0  0  0  0  0  0
    3.7417   -1.9125    0.0000 O   0  0  0  0  0  0  0  0  0  0  0  0
    0.0417   -7.3917    0.0000 O   0  0  0  0  0  0  0  0  0  0  0  0
   -2.4208   -7.3917    0.0000 O   0  0  0  0  0  0  0  0  0  0  0  0
   -1.2333   -3.8625    0.0000 C   0  0  0  0  0  0  0  0  0  0  0  0
   -1.2333   -3.1375    0.0000 C   0  0  0  0  0  0  0  0  0  0  0  0
    3.4917   -2.8750    0.0000 C   0  0  0  0  0  0  0  0  0  0  0  0
    2.7792   -2.8750    0.0000 C   0  0  0  0  0  0  0  0  0  0  0  0
    0.1042   -1.9125    0.0000 C   0  0  0  0  0  0  0  0  0  0  0  0
    2.5167   -1.2125    0.0000 C   0  0  0  0  0  0  0  0  0  0  0  0
    0.0167   -4.6542    0.0000 H   0  0  0  0  0  0  0  0  0  0  0  0
    1.3667   -2.5875    0.0000 H   0  0  0  0  0  0  0  0  0  0  0  0
  2  1  1  0
  3  1  1  0
  4  2  1  0
  5  4  2  0
  6 11  2  0
  7 13  1  0
  8  7  2  0
  9  2  1  0
 10  3  1  0
 11  5  1  0
 12 15  1  0
 13  3  1  0
 14 16  1  0
 15  8  1  0
 16 19  1  0
 17 18  1  0
 18  6  1  0
 19  6  1  0
 20  1  1  0
  1 21  1  1
 22 12  1  0
 16 23  1  1
 17 24  1  6
 25  4  1  0
 26 20  1  0
 27 12  1  0
 28 12  1  0
 13 29  1  6
 15 30  1  6
  2 31  1  6
  3 32  1  6
 26 25  1  0
 10  9  1  0
 14 17  1  0
M  END
> <chembl_id>
CHEMBL1200622

> <chembl_pref_name>
PARICALCITOL

$$$$

     RDKit          2D

  8  8  0  0  0  0  0  0  0  0999 V2000
   -1.0083    0.5833    0.0000 N   0  0  0  0  0  0  0  0  0  0  0  0
   -1.0083   -0.9667    0.0000 C   0  0  0  0  0  0  0  0  0  0  0  0
    0.3375    1.3583    0.0000 C   0  0  0  0  0  0  0  0  0  0  0  0
    1.6750    0.5833    0.0000 C   0  0  0  0  0  0  0  0  0  0  0  0
    0.3375   -1.7375    0.0000 N   0  0  0  0  0  0  0  0  0  0  0  0
    1.6750   -0.9667    0.0000 C   0  0  0  0  0  0  0  0  0  0  0  0
   -2.3583   -1.7417    0.0000 O   0  0  0  0  0  0  0  0  0  0  0  0
    0.3375    2.9125    0.0000 O   0  0  0  0  0  0  0  0  0  0  0  0
  2  1  1  0
  3  1  1  0
  4  3  1  0
  5  2  1  0
  6  4  2  0
  7  2  2  0
  8  3  2  0
  5  6  1  0
M  END
> <chembl_id>
CHEMBL566

> <chembl_pref_name>
URACIL

$$$$

     RDKit          2D

 21 23  0  0  0  0  0  0  0  0999 V2000
    5.2326    3.6320    0.0000 C   0  0  0  0  0  0  0  0  0  0  0  0
    5.2326    2.8070    0.0000 N   0  0  0  0  0  0  0  0  0  0  0  0
    5.9471    2.3945    0.0000 C   0  0  0  0  0  0  0  0  0  0  0  0
    4.5181    2.3945    0.0000 C   0  0  0  0  0  0  0  0  0  0  0  0
    4.5181    1.5695    0.0000 C   0  0  0  0  0  0  0  0  0  0  0  0
    3.8037    1.1570    0.0000 C   0  0  0  0  0  0  0  0  0  0  0  0
    3.8037    0.3320    0.0000 C   0  0  0  0  0  0  0  0  0  0  0  0
    4.5470   -0.0260    0.0000 C   0  0  0  0  0  0  0  0  0  0  0  0
    5.1517    0.5352    0.0000 C   0  0  0  0  0  0  0  0  0  0  0  0
    5.9401    0.2920    0.0000 C   0  0  0  0  0  0  0  0  0  0  0  0
    6.1237   -0.5123    0.0000 C   0  0  0  0  0  0  0  0  0  0  0  0
    5.5189   -1.0735    0.0000 C   0  0  0  0  0  0  0  0  0  0  0  0
    4.7305   -0.8303    0.0000 C   0  0  0  0  0  0  0  0  0  0  0  0
    4.2162   -1.4753    0.0000 C   0  0  0  0  0  0  0  0  0  0  0  0
    3.3912   -1.4753    0.0000 O   0  0  0  0  0  0  0  0  0  0  0  0
    2.8768   -0.8303    0.0000 C   0  0  0  0  0  0  0  0  0  0  0  0
    2.0884   -1.0735    0.0000 C   0  0  0  0  0  0  0  0  0  0  0  0
    1.4837   -0.5123    0.0000 C   0  0  0  0  0  0  0  0  0  0  0  0
    1.6673    0.2920    0.0000 C   0  0  0  0  0  0  0  0  0  0  0  0
    2.4556    0.5352    0.0000 C   0  0  0  0  0  0  0  0  0  0  0  0
    3.0604   -0.0260    0.0000 C   0  0  0  0  0  0  0  0  0  0  0  0
  1  2  1  0
  2  3  1  0
  2  4  1  0
  4  5  1  0
  6  5  1  0
  6  7  2  3
  7  8  1  0
  8  9  2  0
  9 10  1  0
 10 11  2  0
 11 12  1  0
 12 13  2  0
  8 13  1  0
 13 14  1  0
 14 15  1  0
 15 16  1  0
 16 17  2  0
 17 18  1  0
 18 19  2  0
 19 20  1  0
 20 21  2  0
  7 21  1  0
 16 21  1  0
M  END
> <chembl_id>
CHEMBL1628227

> <chembl_pref_name>
DOXEPIN

$$$$

     RDKit          2D

 36 39  0  0  1  0  0  0  0  0999 V2000
   -0.9458   -1.1750    0.0000 C   0  0  0  0  0  0  0  0  0  0  0  0
   -2.3333   -1.1667    0.0000 C   0  0  0  0  0  0  0  0  0  0  0  0
   -1.6333   -0.7667    0.0000 C   0  0  0  0  0  0  0  0  0  0  0  0
   -0.9625   -1.9542    0.0000 C   0  0  0  0  0  0  0  0  0  0  0  0
   -2.3333   -1.9417    0.0000 C   0  0  0  0  0  0  0  0  0  0  0  0
   -0.2708   -0.7667    0.0000 C   0  0  0  0  0  0  0  0  0  0  0  0
   -1.6458   -2.3500    0.0000 N   0  0  0  0  0  0  0  0  0  0  0  0
   -0.3083    1.6208    0.0000 N   0  0  0  0  0  0  0  0  0  0  0  0
   -1.6333    0.0333    0.0000 C   0  0  0  0  0  0  0  0  0  0  0  0
   -3.0208   -0.7667    0.0000 C   0  0  0  0  0  0  0  0  0  0  0  0
    2.1292   -0.0042    0.0000 N   0  0  0  0  0  0  0  0  0  0  0  0
   -0.9750    1.2208    0.0000 C   0  0  0  0  0  0  0  0  0  0  0  0
    0.4417   -1.1042    0.0000 O   0  0  0  0  0  0  0  0  0  0  0  0
   -0.9625    0.4375    0.0000 C   0  0  0  0  0  0  0  0  0  0  0  0
    0.3750    1.2458    0.0000 O   0  0  0  0  0  0  0  0  0  0  0  0
   -0.3208    2.4083    0.0000 O   0  0  0  0  0  0  0  0  0  0  0  0
   -0.2708    0.1958    0.0000 O   0  0  0  0  0  0  0  0  0  0  0  0
    1.0042   -0.5542    0.0000 C   0  0  0  0  0  0  0  0  0  0  0  0
   -2.9875    0.0125    0.0000 O   0  0  0  0  0  0  0  0  0  0  0  0
    1.7417   -0.6625    0.0000 C   0  0  0  0  0  0  0  0  0  0  0  0
    2.9167    0.0500    0.0000 C   0  0  0  0  0  0  0  0  0  0  0  0
    0.8917    0.2583    0.0000 C   0  0  0  0  0  0  0  0  0  0  0  0
    1.6250    0.6125    0.0000 C   0  0  0  0  0  0  0  0  0  0  0  0
   -3.7208   -1.1375    0.0000 O   0  0  0  0  0  0  0  0  0  0  0  0
   -3.0083   -2.3375    0.0000 C   0  0  0  0  0  0  0  0  0  0  0  0
   -0.2875   -2.3542    0.0000 C   0  0  0  0  0  0  0  0  0  0  0  0
   -2.3125    0.4125    0.0000 C   0  0  0  0  0  0  0  0  0  0  0  0
    3.2375   -0.6667    0.0000 C   0  0  0  0  0  0  0  0  0  0  0  0
   -1.6583    1.6000    0.0000 C   0  0  0  0  0  0  0  0  0  0  0  0
   -2.3333    1.1958    0.0000 C   0  0  0  0  0  0  0  0  0  0  0  0
   -4.3458   -0.6542    0.0000 C   0  0  0  0  0  0  0  0  0  0  0  0
    4.0250   -0.7542    0.0000 C   0  0  0  0  0  0  0  0  0  0  0  0
    2.7667   -1.3125    0.0000 C   0  0  0  0  0  0  0  0  0  0  0  0
    4.3417   -1.4792    0.0000 C   0  0  0  0  0  0  0  0  0  0  0  0
    3.0875   -2.0292    0.0000 C   0  0  0  0  0  0  0  0  0  0  0  0
    3.8792   -2.1167    0.0000 C   0  0  0  0  0  0  0  0  0  0  0  0
  2  3  1  0
  3  1  1  0
  4  1  2  0
  5  7  1  0
  6  1  1  0
  7  4  1  0
  8 12  1  0
  3  9  1  6
 10  2  1  0
 11 20  1  0
 12 14  2  0
 13  6  1  0
 14  9  1  0
 15  8  1  0
 16  8  2  0
 17  6  2  0
 18 13  1  1
 19 10  2  0
 20 18  1  0
 21 11  1  0
 22 18  1  0
 23 22  1  0
 24 10  1  0
 25  5  1  0
 26  4  1  0
 27  9  2  0
 28 21  1  0
 29 30  2  0
 30 27  1  0
 31 24  1  0
 32 28  1  0
 33 28  2  0
 34 32  2  0
 35 33  1  0
 36 35  2  0
  2  5  2  0
 11 23  1  0
 12 29  1  0
 34 36  1  0
M  CHG  2   8   1  15  -1
M  END
> <chembl_id>
CHEMBL2103761

> <chembl_pref_name>
BARNIDIPINE

$$$$

     RDKit          2D

 10  9  0  0  0  0  0  0  0  0999 V2000
    4.2750   -6.5417    0.0000 C   0  0  0  0  0  0  0  0  0  0  0  0
    3.0667   -6.5375    0.0000 O   0  0  0  0  0  0  0  0  0  0  0  0
    3.6667   -6.8875    0.0000 C   0  0  0  0  0  0  0  0  0  0  0  0
    2.4458   -6.8750    0.0000 C   0  0  0  0  0  0  0  0  0  0  0  0
    4.8833   -6.9042    0.0000 F   0  0  0  0  0  0  0  0  0  0  0  0
    4.6250   -5.9292    0.0000 F   0  0  0  0  0  0  0  0  0  0  0  0
    3.9167   -5.9292    0.0000 F   0  0  0  0  0  0  0  0  0  0  0  0
    3.6667   -7.6000    0.0000 Cl  0  0  0  0  0  0  0  0  0  0  0  0
    2.4458   -7.5875    0.0000 F   0  0  0  0  0  0  0  0  0  0  0  0
    1.8375   -6.5125    0.0000 F   0  0  0  0  0  0  0  0  0  0  0  0
  2  3  1  0
  3  1  1  0
  4  2  1  0
  5  1  1  0
  6  1  1  0
  7  1  1  0
  8  3  1  0
  9  4  1  0
 10  4  1  0
M  END
> <chembl_id>
CHEMBL1256

> <chembl_pref_name>
ISOFLURANE

$$$$

     RDKit          2D

 23 22  0  0  0  0  0  0  0  0999 V2000
   -7.2777   -9.1339    0.0000 C   0  0  0  0  0  0  0  0  0  0  0  0
   -6.5632   -8.7214    0.0000 C   0  0  0  0  0  0  0  0  0  0  0  0
   -5.8487   -9.1339    0.0000 C   0  0  0  0  0  0  0  0  0  0  0  0
   -5.1343   -8.7214    0.0000 C   0  0  0  0  0  0  0  0  0  0  0  0
   -4.4198   -9.1339    0.0000 C   0  0  0  0  0  0  0  0  0  0  0  0
   -3.7053   -8.7214    0.0000 N   0  0  0  0  0  0  0  0  0  0  0  0
   -2.9909   -9.1339    0.0000 C   0  0  0  0  0  0  0  0  0  0  0  0
   -2.2764   -8.7214    0.0000 C   0  0  0  0  0  0  0  0  0  0  0  0
   -1.5619   -9.1339    0.0000 N   0  0  0  0  0  0  0  0  0  0  0  0
   -0.8474   -8.7214    0.0000 C   0  0  0  0  0  0  0  0  0  0  0  0
   -0.1330   -9.1339    0.0000 C   0  0  0  0  0  0  0  0  0  0  0  0
    0.5815   -8.7214    0.0000 O   0  0  0  0  0  0  0  0  0  0  0  0
   -0.1330   -9.9589    0.0000 O   0  0  0  0  0  0  0  0  0  0  0  0
   -2.2764   -7.8964    0.0000 O   0  0  0  0  0  0  0  0  0  0  0  0
   -2.5784   -9.8484    0.0000 C   0  0  0  0  0  0  0  0  0  0  0  0
   -2.9909  -10.5629    0.0000 S   0  0  0  0  0  0  0  0  0  0  0  0
   -2.5784  -11.2773    0.0000 As  0  0  0  0  0  3  0  0  0  0  0  0
   -2.9909  -11.9918    0.0000 C   0  0  0  0  0  0  0  0  0  0  0  0
   -1.7534  -11.2773    0.0000 C   0  0  0  0  0  0  0  0  0  0  0  0
   -4.4198   -9.9589    0.0000 O   0  0  0  0  0  0  0  0  0  0  0  0
   -6.1507   -8.0070    0.0000 N   0  0  0  0  0  0  0  0  0  0  0  0
   -7.9921   -8.7214    0.0000 O   0  0  0  0  0  0  0  0  0  0  0  0
   -7.2777   -9.9589    0.0000 O   0  0  0  0  0  0  0  0  0  0  0  0
  1  2  1  0
  2  3  1  0
  3  4  1  0
  4  5  1  0
  5  6  1  0
  7  6  1  6
  7  8  1  0
  8  9  1  0
  9 10  1  0
 10 11  1  0
 11 12  1  0
 11 13  2  0
  8 14  2  0
  7 15  1  0
 15 16  1  0
 16 17  1  0
 17 18  1  0
 17 19  1  0
  5 20  2  0
  2 21  1  1
  1 22  1  0
  1 23  2  0
M  END
> <chembl_id>
CHEMBL3247378

> <chembl_pref_name>
DARINAPARSIN

$$$$

     RDKit          2D

 38 41  0  0  1  0  0  0  0  0999 V2000
    2.4375   -3.1417    0.0000 C   0  0  0  0  0  0  0  0  0  0  0  0
    3.1125   -2.9292    0.0000 C   0  0  0  0  0  0  0  0  0  0  0  0
    0.5917   -4.1917    0.0000 C   0  0  0  0  0  0  0  0  0  0  0  0
    1.8167   -4.1917    0.0000 C   0  0  0  0  0  0  0  0  0  0  0  0
    2.4292   -3.8417    0.0000 C   0  0  0  0  0  0  0  0  0  0  0  0
    1.2042   -3.8375    0.0000 C   0  0  0  0  0  0  0  0  0  0  0  0
    0.5917   -4.9000    0.0000 C   0  0  0  0  0  0  0  0  0  0  0  0
    1.8250   -2.7792    0.0000 C   0  0  0  0  0  0  0  0  0  0  0  0
    1.2042   -3.1292    0.0000 C   0  0  0  0  0  0  0  0  0  0  0  0
   -0.0208   -3.8375    0.0000 C   0  0  0  0  0  0  0  0  0  0  0  0
    3.1042   -2.2167    0.0000 C   0  0  0  0  0  0  0  0  0  0  0  0
   -0.0208   -5.2542    0.0000 C   0  0  0  0  0  0  0  0  0  0  0  0
    3.7250   -2.5667    0.0000 O   0  0  0  0  0  0  0  0  0  0  0  0
    4.3417   -2.9167    0.0000 C   0  0  0  0  0  0  0  0  0  0  0  0
    3.5167   -3.5042    0.0000 C   0  0  0  0  0  0  0  0  0  0  0  0
    3.1000   -4.0708    0.0000 C   0  0  0  0  0  0  0  0  0  0  0  0
    1.8125   -4.9042    0.0000 C   0  0  0  0  0  0  0  0  0  0  0  0
   -0.6333   -4.1917    0.0000 C   0  0  0  0  0  0  0  0  0  0  0  0
   -0.6333   -4.9000    0.0000 C   0  0  0  0  0  0  0  0  0  0  0  0
    1.2000   -5.2542    0.0000 C   0  0  0  0  0  0  0  0  0  0  0  0
    4.9417   -1.8500    0.0000 C   0  0  0  0  0  0  0  0  0  0  0  0
    3.7167   -1.8542    0.0000 C   0  0  0  0  0  0  0  0  0  0  0  0
    4.3417   -3.6250    0.0000 O   0  0  0  0  0  0  0  0  0  0  0  0
    2.4917   -1.8667    0.0000 O   0  0  0  0  0  0  0  0  0  0  0  0
    4.3292   -2.2042    0.0000 O   0  0  0  0  0  0  0  0  0  0  0  0
    4.9375   -1.1417    0.0000 O   0  0  0  0  0  0  0  0  0  0  0  0
   -1.2458   -5.2500    0.0000 O   0  0  0  0  0  0  0  0  0  0  0  0
    2.4292   -2.4292    0.0000 C   0  0  0  0  0  0  0  0  0  0  0  0
    0.5917   -2.7667    0.0000 O   0  0  0  0  0  0  0  0  0  0  0  0
    4.9500   -2.5542    0.0000 O   0  0  0  0  0  0  0  0  0  0  0  0
    0.5875   -3.4792    0.0000 C   0  0  0  0  0  0  0  0  0  0  0  0
    5.5542   -2.2000    0.0000 C   0  0  0  0  0  0  0  0  0  0  0  0
    5.5667   -2.9042    0.0000 C   0  0  0  0  0  0  0  0  0  0  0  0
    6.1667   -1.8417    0.0000 C   0  0  0  0  0  0  0  0  0  0  0  0
    6.1750   -2.5417    0.0000 C   0  0  0  0  0  0  0  0  0  0  0  0
    1.2000   -4.5417    0.0000 H   0  0  0  0  0  0  0  0  0  0  0  0
    2.4250   -4.5542    0.0000 H   0  0  0  0  0  0  0  0  0  0  0  0
    1.8125   -3.4875    0.0000 H   0  0  0  0  0  0  0  0  0  0  0  0
  2  1  1  0
  3  6  1  0
  4  5  1  0
  5  1  1  0
  6  9  1  0
  7  3  1  0
  8  1  1  0
  9  8  1  0
 10  3  1  0
 11  2  1  0
 12  7  2  0
  2 13  1  6
 14 13  1  0
 15  2  1  0
 16  5  1  0
 17  4  1  0
 18 10  2  0
 19 18  1  0
 20 17  1  0
 21 25  1  0
 22 11  1  0
 23 14  2  0
 24 11  2  0
 25 22  1  0
 26 21  2  0
 27 19  2  0
  1 28  1  1
  9 29  1  1
 30 14  1  0
  3 31  1  1
 32 21  1  0
 33 30  1  0
 34 32  1  0
 35 33  1  0
  6 36  1  6
  5 37  1  6
  4 38  1  1
 15 16  1  0
  6  4  1  0
 20  7  1  0
 19 12  1  0
M  END
> <chembl_id>
CHEMBL1200386

> <chembl_pref_name>
PREDNICARBATE

$$$$

     RDKit          2D

 17 18  0  0  1  0  0  0  0  0999 V2000
    5.5667   -5.0417    0.0000 C   0  0  0  0  0  0  0  0  0  0  0  0
    6.8042   -5.0542    0.0000 C   0  0  0  0  0  0  0  0  0  0  0  0
    4.9500   -5.4042    0.0000 C   0  0  0  0  0  0  0  0  0  0  0  0
    6.1792   -5.4042    0.0000 C   0  0  0  0  0  0  0  0  0  0  0  0
    4.3417   -5.0500    0.0000 C   0  0  0  0  0  0  0  0  0  0  0  0
    4.3417   -4.3500    0.0000 C   0  0  0  0  0  0  0  0  0  0  0  0
    5.5667   -4.3417    0.0000 C   0  0  0  0  0  0  0  0  0  0  0  0
    6.8292   -4.3417    0.0000 O   0  0  0  0  0  0  0  0  0  0  0  0
    3.7167   -3.9917    0.0000 C   0  0  0  0  0  0  0  0  0  0  0  0
    4.9417   -3.9875    0.0000 C   0  0  0  0  0  0  0  0  0  0  0  0
    3.7167   -5.4042    0.0000 C   0  0  0  0  0  0  0  0  0  0  0  0
    3.1042   -4.3500    0.0000 C   0  0  0  0  0  0  0  0  0  0  0  0
    7.4125   -5.4167    0.0000 O   0  0  0  0  0  0  0  0  0  0  0  0
    3.1042   -5.0542    0.0000 C   0  0  0  0  0  0  0  0  0  0  0  0
    2.4917   -3.9875    0.0000 O   0  0  0  0  0  0  0  0  0  0  0  0
    6.1875   -6.1125    0.0000 C   0  0  0  0  0  0  0  0  0  0  0  0
    1.8667   -4.3375    0.0000 C   0  0  0  0  0  0  0  0  0  0  0  0
  2  4  1  0
  3  1  1  0
  4  1  1  0
  5  3  2  0
  6 10  2  0
  7  1  2  0
  8  2  2  0
  9  6  1  0
 10  7  1  0
 11  5  1  0
 12  9  2  0
 13  2  1  0
 14 11  2  0
 15 12  1  0
  4 16  1  1
 17 15  1  0
  6  5  1  0
 12 14  1  0
M  END
> <chembl_id>
CHEMBL154

> <chembl_pref_name>
NAPROXEN

$$$$

     RDKit          2D

 17 18  0  0  0  0  0  0  0  0999 V2000
   -5.8131    1.5452    0.0000 O   0  0  0  0  0  0  0  0  0  0  0  0
   -6.4805    1.0603    0.0000 C   0  0  0  0  0  0  0  0  0  0  0  0
   -6.2256    0.2757    0.0000 C   0  0  0  0  0  0  0  0  0  0  0  0
   -5.4006    0.2757    0.0000 C   0  0  0  0  0  0  0  0  0  0  0  0
   -5.1456    1.0603    0.0000 C   0  0  0  0  0  0  0  0  0  0  0  0
   -5.0608    3.7202    0.0000 C   0  0  0  0  0  0  0  0  0  0  0  0
   -5.7753    3.3076    0.0000 N   0  0  0  0  0  0  0  0  0  0  0  0
   -5.7753    2.4826    0.0000 C   0  0  0  0  0  0  0  0  0  0  0  0
   -5.0608    2.0701    0.0000 N   0  0  0  0  0  0  0  0  0  0  0  0
   -4.3463    2.4826    0.0000 C   0  0  0  0  0  0  0  0  0  0  0  0
   -4.3463    3.3076    0.0000 C   0  0  0  0  0  0  0  0  0  0  0  0
   -5.0608    4.5452    0.0000 O   0  0  0  0  0  0  0  0  0  0  0  0
   -3.6319    3.7201    0.0000 C   0  0  0  0  0  0  0  0  0  0  0  0
   -6.4897    2.0701    0.0000 O   0  0  0  0  0  0  0  0  0  0  0  0
   -7.0639    1.6437    0.0000 C   0  0  0  0  0  0  0  0  0  0  0  0
   -7.8608    1.4301    0.0000 O   0  0  0  0  0  0  0  0  0  0  0  0
   -6.7105   -0.3917    0.0000 O   0  0  0  0  0  0  0  0  0  0  0  0
  1  2  1  0
  2  3  1  0
  3  4  1  0
  4  5  1  0
  1  5  1  0
  6  7  1  0
  7  8  1  0
  8  9  1  0
  9 10  1  0
 10 11  2  0
  6 11  1  0
  6 12  2  0
 11 13  1  0
  8 14  2  0
  5  9  1  1
  2 15  1  1
 15 16  1  0
  3 17  1  6
M  END
> <chembl_id>
CHEMBL52609

> <chembl_pref_name>
DOXRIBTIMINE

$$$$

     RDKit          2D

 37 40  0  0  1  0  0  0  0  0999 V2000
   -0.6847   -0.7683    0.0000 C   0  0  0  0  0  0  0  0  0  0  0  0
   -2.1001   -0.7933    0.0000 C   0  0  0  0  0  0  0  0  0  0  0  0
   -1.3862   -0.3549    0.0000 C   0  0  0  0  0  0  0  0  0  0  0  0
   -0.6847   -1.6075    0.0000 C   0  0  0  0  0  0  0  0  0  0  0  0
   -2.1001   -1.5825    0.0000 C   0  0  0  0  0  0  0  0  0  0  0  0
    0.0293   -0.3549    0.0000 C   0  0  0  0  0  0  0  0  0  0  0  0
   -1.3862   -2.0167    0.0000 N   0  0  0  0  0  0  0  0  0  0  0  0
    0.0501    2.1044    0.0000 N   0  0  0  0  0  0  0  0  0  0  0  0
   -1.3862    0.4592    0.0000 C   0  0  0  0  0  0  0  0  0  0  0  0
   -2.8309   -0.3883    0.0000 C   0  0  0  0  0  0  0  0  0  0  0  0
    2.8977   -0.3299    0.0000 N   0  0  0  0  0  0  0  0  0  0  0  0
   -0.6639    1.7035    0.0000 C   0  0  0  0  0  0  0  0  0  0  0  0
    0.7432   -0.7683    0.0000 O   0  0  0  0  0  0  0  0  0  0  0  0
   -0.6639    0.8601    0.0000 C   0  0  0  0  0  0  0  0  0  0  0  0
    0.0501    2.9644    0.0000 O   0  0  0  0  0  0  0  0  0  0  0  0
    0.7683    1.7035    0.0000 O   0  0  0  0  0  0  0  0  0  0  0  0
    0.0293    0.4592    0.0000 O   0  0  0  0  0  0  0  0  0  0  0  0
   -2.8309    0.4134    0.0000 O   0  0  0  0  0  0  0  0  0  0  0  0
    2.1837   -0.7683    0.0000 C   0  0  0  0  0  0  0  0  0  0  0  0
    3.6367   -0.7390    0.0000 C   0  0  0  0  0  0  0  0  0  0  0  0
    1.4655   -0.3549    0.0000 C   0  0  0  0  0  0  0  0  0  0  0  0
   -3.5531   -0.8267    0.0000 O   0  0  0  0  0  0  0  0  0  0  0  0
   -2.8309   -1.9833    0.0000 C   0  0  0  0  0  0  0  0  0  0  0  0
    0.0293   -2.0459    0.0000 C   0  0  0  0  0  0  0  0  0  0  0  0
   -2.1001    0.8601    0.0000 C   0  0  0  0  0  0  0  0  0  0  0  0
    2.8977    0.4592    0.0000 C   0  0  0  0  0  0  0  0  0  0  0  0
    3.6367   -1.5407    0.0000 C   0  0  0  0  0  0  0  0  0  0  0  0
   -1.3862    2.0876    0.0000 C   0  0  0  0  0  0  0  0  0  0  0  0
   -2.1001    1.6743    0.0000 C   0  0  0  0  0  0  0  0  0  0  0  0
    2.1837    0.8893    0.0000 C   0  0  0  0  0  0  0  0  0  0  0  0
    1.4655    0.4843    0.0000 C   0  0  0  0  0  0  0  0  0  0  0  0
   -4.3548   -0.3800    0.0000 C   0  0  0  0  0  0  0  0  0  0  0  0
    4.3507   -1.9457    0.0000 C   0  0  0  0  0  0  0  0  0  0  0  0
    2.9227   -1.9457    0.0000 C   0  0  0  0  0  0  0  0  0  0  0  0
    4.3507   -2.7724    0.0000 C   0  0  0  0  0  0  0  0  0  0  0  0
    2.9353   -2.7933    0.0000 C   0  0  0  0  0  0  0  0  0  0  0  0
    3.6492   -3.1816    0.0000 C   0  0  0  0  0  0  0  0  0  0  0  0
  2  3  1  0
  3  1  1  0
  4  1  2  0
  5  7  1  0
  6  1  1  0
  7  4  1  0
  8 12  1  0
  3  9  1  0
 10  2  1  0
 11 19  1  0
 12 14  2  0
 13  6  1  0
 14  9  1  0
 15  8  1  0
 16  8  2  0
 17  6  2  0
 18 10  2  0
 19 21  1  0
 20 11  1  0
 21 13  1  0
 22 10  1  0
 23  5  1  0
 24  4  1  0
 25  9  2  0
 26 30  1  0
 27 20  1  0
 28 29  2  0
 29 25  1  0
 30 31  1  0
 31 21  1  0
 32 22  1  0
 33 27  1  0
 34 27  2  0
 35 33  2  0
 36 34  1  0
 37 36  2  0
  2  5  2  0
 12 28  1  0
 11 26  1  0
 35 37  1  0
M  CHG  2   8   1  15  -1
M  END
> <chembl_id>
CHEMBL2074972

> <chembl_pref_name>
BENIDIPINE

$$$$

     RDKit          2D

 38 41  0  0  0  0  0  0  0  0999 V2000
   -6.1094    0.0043    0.0000 C   0  0  0  0  0  0  0  0  0  0  0  0
   -6.8239   -0.4082    0.0000 F   0  0  0  0  0  0  0  0  0  0  0  0
   -5.3950   -0.4082    0.0000 O   0  0  0  0  0  0  0  0  0  0  0  0
   -4.6805    0.0043    0.0000 C   0  0  0  0  0  0  0  0  0  0  0  0
   -3.9660   -1.2332    0.0000 O   0  0  0  0  0  0  0  0  0  0  0  0
   -3.9660   -0.4082    0.0000 C   0  0  0  0  0  0  0  0  0  0  0  0
   -3.2516    0.0043    0.0000 N   0  0  0  0  0  0  0  0  0  0  0  0
   -3.2516   -1.6457    0.0000 C   0  0  0  0  0  0  0  0  0  0  0  0
   -2.5371   -1.2332    0.0000 C   0  0  0  0  0  0  0  0  0  0  0  0
   -2.5371   -0.4082    0.0000 C   0  0  0  0  0  0  0  0  0  0  0  0
   -3.2516   -2.4707    0.0000 C   0  0  0  0  0  0  0  0  0  0  0  0
   -2.5371   -2.8832    0.0000 C   0  0  0  0  0  0  0  0  0  0  0  0
   -1.8226   -2.4707    0.0000 C   0  0  0  0  0  0  0  0  0  0  0  0
   -1.8226   -1.6457    0.0000 C   0  0  0  0  0  0  0  0  0  0  0  0
   -1.1082   -1.2332    0.0000 C   0  0  0  0  0  0  0  0  0  0  0  0
   -1.1082   -2.8832    0.0000 Cl  0  0  0  0  0  0  0  0  0  0  0  0
   -0.3937   -1.6457    0.0000 O   0  0  0  0  0  0  0  0  0  0  0  0
    0.3208   -1.2332    0.0000 C   0  0  0  0  0  0  0  0  0  0  0  0
    1.0352   -1.6457    0.0000 C   0  0  0  0  0  0  0  0  0  0  0  0
    1.0352    0.0043    0.0000 C   0  0  0  0  0  0  0  0  0  0  0  0
    0.3208   -0.4082    0.0000 C   0  0  0  0  0  0  0  0  0  0  0  0
    1.7497   -1.2332    0.0000 C   0  0  0  0  0  0  0  0  0  0  0  0
    1.7497   -0.4082    0.0000 C   0  0  0  0  0  0  0  0  0  0  0  0
   -0.3937    0.0043    0.0000 N   0  0  0  0  0  0  0  0  0  0  0  0
   -0.3938    0.8293    0.0000 C   0  0  0  0  0  0  0  0  0  0  0  0
    0.3207    1.2418    0.0000 C   0  0  0  0  0  0  0  0  0  0  0  0
    1.0352    0.8293    0.0000 C   0  0  0  0  0  0  0  0  0  0  0  0
    1.7497    1.2419    0.0000 C   0  0  0  0  0  0  0  0  0  0  0  0
    2.4642    0.8294    0.0000 N   0  0  0  0  0  0  0  0  0  0  0  0
    1.9212    2.0488    0.0000 N   0  0  0  0  0  0  0  0  0  0  0  0
    2.7417    2.1351    0.0000 N   0  0  0  0  0  0  0  0  0  0  0  0
    3.0772    1.3814    0.0000 C   0  0  0  0  0  0  0  0  0  0  0  0
   -6.1094    0.8293    0.0000 F   0  0  0  0  0  0  0  0  0  0  0  0
   -1.7185   -0.0463    0.0000 C   0  0  0  0  0  0  0  0  0  0  0  0
   -3.9660   -2.8832    0.0000 F   0  0  0  0  0  0  0  0  0  0  0  0
   -1.1082    1.2418    0.0000 C   0  0  0  0  0  0  0  0  0  0  0  0
    1.3692    2.6619    0.0000 C   0  0  0  0  0  0  0  0  0  0  0  0
   -2.3236    0.3887    0.0000 H   0  0  0  0  0  0  0  0  0  0  0  0
  1  2  1  0
  1  3  1  0
  5  6  2  0
  4  6  1  0
  4  3  1  0
  8  9  1  0
  9 10  1  0
  7 10  1  0
  7  6  1  0
 11 12  1  0
 12 13  2  0
 13 14  1  0
  9 14  2  0
  8 11  2  0
 15 17  1  0
 13 16  1  0
 15 14  1  0
 18 19  2  0
 18 17  1  0
 20 21  2  0
 22 23  2  0
 20 23  1  0
 21 18  1  0
 19 22  1  0
 24 25  2  0
 25 26  1  0
 26 27  2  0
 20 27  1  0
 21 24  1  0
 28 29  2  0
 28 27  1  0
 30 31  1  0
 31 32  2  0
 28 30  1  0
 29 32  1  0
  1 33  1  0
 10 34  1  1
 11 35  1  0
 25 36  1  0
 30 37  1  0
 10 38  1  0
M  ISO  1  38   2
M  END
> <chembl_id>
CHEMBL5095059

> <chembl_pref_name>
DEUCRICTIBANT

$$$$

     RDKit          2D

 26 27  0  0  0  0  0  0  0  0999 V2000
    0.1000    1.3833    0.0000 C   0  0  0  0  0  0  0  0  0  0  0  0
    1.0167   -0.2167    0.0000 C   0  0  0  0  0  0  0  0  0  0  0  0
    0.1000    0.3208    0.0000 C   0  0  0  0  0  0  0  0  0  0  0  0
    1.0042    1.9333    0.0000 C   0  0  0  0  0  0  0  0  0  0  0  0
    1.9375    0.3208    0.0000 C   0  0  0  0  0  0  0  0  0  0  0  0
    1.9375    1.3958    0.0000 N   0  0  0  0  0  0  0  0  0  0  0  0
   -1.7583   -2.8167    0.0000 N   0  0  0  0  0  0  0  0  0  0  0  0
   -0.8333   -0.1792    0.0000 C   0  0  0  0  0  0  0  0  0  0  0  0
    1.0167   -1.2792    0.0000 C   0  0  0  0  0  0  0  0  0  0  0  0
   -1.0000    2.0250    0.0000 C   0  0  0  0  0  0  0  0  0  0  0  0
   -1.7583   -1.7625    0.0000 C   0  0  0  0  0  0  0  0  0  0  0  0
   -0.8333   -1.2542    0.0000 C   0  0  0  0  0  0  0  0  0  0  0  0
   -0.8458   -3.3167    0.0000 O   0  0  0  0  0  0  0  0  0  0  0  0
   -2.6625   -3.3292    0.0000 O   0  0  0  0  0  0  0  0  0  0  0  0
   -1.8833    1.4958    0.0000 O   0  0  0  0  0  0  0  0  0  0  0  0
    1.9375   -1.7625    0.0000 O   0  0  0  0  0  0  0  0  0  0  0  0
    0.1250   -1.8042    0.0000 O   0  0  0  0  0  0  0  0  0  0  0  0
   -1.0000    3.1083    0.0000 O   0  0  0  0  0  0  0  0  0  0  0  0
    1.0042    2.9875    0.0000 C   0  0  0  0  0  0  0  0  0  0  0  0
    2.8542   -0.1792    0.0000 C   0  0  0  0  0  0  0  0  0  0  0  0
   -1.7583    0.3625    0.0000 C   0  0  0  0  0  0  0  0  0  0  0  0
   -2.6750   -1.2375    0.0000 C   0  0  0  0  0  0  0  0  0  0  0  0
   -2.6875   -0.1792    0.0000 C   0  0  0  0  0  0  0  0  0  0  0  0
   -1.9750    3.5958    0.0000 C   0  0  0  0  0  0  0  0  0  0  0  0
    0.1542   -2.8625    0.0000 C   0  0  0  0  0  0  0  0  0  0  0  0
   -2.8458    3.1083    0.0000 C   0  0  0  0  0  0  0  0  0  0  0  0
  2  3  1  0
  3  1  1  0
  4  1  2  0
  5  6  1  0
  6  4  1  0
  7 11  1  0
  8  3  1  0
  9  2  1  0
 10  1  1  0
 11 12  2  0
 12  8  1  0
 13  7  1  0
 14  7  2  0
 15 10  2  0
 16  9  2  0
 17  9  1  0
 18 10  1  0
 19  4  1  0
 20  5  1  0
 21  8  2  0
 22 23  2  0
 23 21  1  0
 24 18  1  0
 25 17  1  0
 26 24  1  0
  2  5  2  0
 11 22  1  0
M  CHG  2   7   1  13  -1
M  END
> <chembl_id>
CHEMBL475534

> <chembl_pref_name>
NITRENDIPINE

$$$$

     RDKit          2D

 39 43  0  0  0  0  0  0  0  0999 V2000
  -18.0616   -0.9723    0.0000 C   0  0  0  0  0  0  0  0  0  0  0  0
  -18.0616   -1.7973    0.0000 N   0  0  0  0  0  0  0  0  0  0  0  0
  -18.7761   -2.2098    0.0000 C   0  0  0  0  0  0  0  0  0  0  0  0
  -17.3471   -2.2098    0.0000 C   0  0  0  0  0  0  0  0  0  0  0  0
  -16.6327   -1.7973    0.0000 C   0  0  0  0  0  0  0  0  0  0  0  0
  -17.3471   -3.0348    0.0000 C   0  0  0  0  0  0  0  0  0  0  0  0
  -16.6327   -3.4473    0.0000 C   0  0  0  0  0  0  0  0  0  0  0  0
  -15.9182   -3.0348    0.0000 C   0  0  0  0  0  0  0  0  0  0  0  0
  -15.9182   -2.2098    0.0000 C   0  0  0  0  0  0  0  0  0  0  0  0
  -15.2037   -3.4473    0.0000 C   0  0  0  0  0  0  0  0  0  0  0  0
  -14.4893   -3.0348    0.0000 C   0  0  0  0  0  0  0  0  0  0  0  0
  -15.2037   -4.2724    0.0000 C   0  0  0  0  0  0  0  0  0  0  0  0
  -14.4893   -4.6849    0.0000 C   0  0  0  0  0  0  0  0  0  0  0  0
  -13.8043   -4.2429    0.0000 C   0  0  0  0  0  0  0  0  0  0  0  0
  -13.8043   -3.4179    0.0000 C   0  0  0  0  0  0  0  0  0  0  0  0
  -13.0197   -3.1629    0.0000 C   0  0  0  0  0  0  0  0  0  0  0  0
  -13.0196   -4.4978    0.0000 C   0  0  0  0  0  0  0  0  0  0  0  0
  -12.5347   -3.8304    0.0000 C   0  0  0  0  0  0  0  0  0  0  0  0
  -15.9477   -4.6849    0.0000 C   0  0  0  0  0  0  0  0  0  0  0  0
  -15.9477   -5.5099    0.0000 C   0  0  0  0  0  0  0  0  0  0  0  0
  -15.2037   -5.9224    0.0000 C   0  0  0  0  0  0  0  0  0  0  0  0
  -14.4893   -5.5099    0.0000 C   0  0  0  0  0  0  0  0  0  0  0  0
  -16.6621   -4.2724    0.0000 C   0  0  0  0  0  0  0  0  0  0  0  0
  -17.3766   -4.6849    0.0000 C   0  0  0  0  0  0  0  0  0  0  0  0
  -17.3766   -5.5099    0.0000 C   0  0  0  0  0  0  0  0  0  0  0  0
  -16.6621   -5.9224    0.0000 C   0  0  0  0  0  0  0  0  0  0  0  0
  -18.0911   -5.9224    0.0000 O   0  0  0  0  0  0  0  0  0  0  0  0
  -13.8043   -2.5929    0.0000 C   0  0  0  0  0  0  0  0  0  0  0  0
  -12.6072   -2.4484    0.0000 C   0  0  0  0  0  0  0  0  0  0  0  0
  -13.0197   -1.7340    0.0000 O   0  0  0  0  0  0  0  0  0  0  0  0
  -11.7822   -2.4484    0.0000 C   0  0  0  0  0  0  0  0  0  0  0  0
  -11.1988   -1.8651    0.0000 O   0  0  0  0  0  0  0  0  0  0  0  0
  -12.1947   -3.1629    0.0000 O   0  0  0  0  0  0  0  0  0  0  0  0
  -11.4802   -3.5754    0.0000 C   0  0  0  0  0  0  0  0  0  0  0  0
  -10.6552   -3.5754    0.0000 C   0  0  0  0  0  0  0  0  0  0  0  0
  -11.4802   -4.4004    0.0000 O   0  0  0  0  0  0  0  0  0  0  0  0
  -10.3738   -1.8651    0.0000 C   0  0  0  0  0  0  0  0  0  0  0  0
  -13.6752   -5.2345    0.0000 H   0  0  0  0  0  0  0  0  0  0  0  0
  -13.6112   -5.1633    0.0000 H   0  0  0  0  0  0  0  0  0  0  0  0
  1  2  1  0
  2  3  1  0
  2  4  1  0
  5  4  2  0
  4  6  1  0
  5  9  1  0
  6  7  2  0
  7  8  1  0
  8  9  2  0
 10  8  1  1
 11 10  1  0
 10 12  1  0
 11 15  1  0
 13 14  1  0
 16 15  1  0
 15 14  1  0
 14 17  1  0
 16 18  1  0
 17 18  1  0
 22 13  1  0
 12 13  1  0
 12 19  2  0
 20 21  1  0
 21 22  1  0
 26 20  2  0
 19 20  1  0
 23 19  1  0
 23 24  1  0
 24 25  1  0
 25 26  1  0
 25 27  2  0
 15 28  1  1
 16 29  1  0
 29 30  2  0
 29 31  1  0
 31 32  1  0
 16 33  1  6
 33 34  1  0
 34 35  1  0
 34 36  2  0
 32 37  1  0
 14 38  1  6
 13 39  1  1
M  END
> <chembl_id>
CHEMBL2105694

> <chembl_pref_name>
TELAPRISTONE ACETATE

$$$$

     RDKit          2D

 37 38  0  0  0  0  0  0  0  0999 V2000
    5.0648   -0.2287    0.0000 C   0  0  0  0  0  0  0  0  0  0  0  0
    4.6511    0.4784    0.0000 O   0  0  0  0  0  0  0  0  0  0  0  0
    5.8946   -0.2287    0.0000 C   0  0  0  0  0  0  0  0  0  0  0  0
    4.6511   -0.9575    0.0000 O   0  0  0  0  0  0  0  0  0  0  0  0
    6.3035   -0.9575    0.0000 C   0  0  0  0  0  0  0  0  0  0  0  0
    6.3035    0.4784    0.0000 C   0  0  0  0  0  0  0  0  0  0  0  0
    7.1285    0.4784    0.0000 C   0  0  0  0  0  0  0  0  0  0  0  0
    7.1285   -0.9575    0.0000 C   0  0  0  0  0  0  0  0  0  0  0  0
    7.5470   -0.2287    0.0000 C   0  0  0  0  0  0  0  0  0  0  0  0
   -1.4526   -1.9725    0.0000 C   0  0  0  0  0  0  0  0  0  0  0  0
   -0.0243   -1.9725    0.0000 C   0  0  0  0  0  0  0  0  0  0  0  0
   -0.7384   -1.5790    0.0000 C   0  0  0  0  0  0  0  0  0  0  0  0
   -0.0243   -2.8179    0.0000 C   0  0  0  0  0  0  0  0  0  0  0  0
   -1.4526   -2.8179    0.0000 C   0  0  0  0  0  0  0  0  0  0  0  0
   -0.7384   -3.2260    0.0000 N   0  0  0  0  0  0  0  0  0  0  0  0
   -2.1522   -1.5644    0.0000 C   0  0  0  0  0  0  0  0  0  0  0  0
    0.6705   -1.5790    0.0000 C   0  0  0  0  0  0  0  0  0  0  0  0
   -0.7384   -0.3401    0.0000 C   0  0  0  0  0  0  0  0  0  0  0  0
   -0.0534    0.0680    0.0000 C   0  0  0  0  0  0  0  0  0  0  0  0
   -2.1522   -0.7628    0.0000 O   0  0  0  0  0  0  0  0  0  0  0  0
    0.6705   -0.7774    0.0000 O   0  0  0  0  0  0  0  0  0  0  0  0
    0.6705   -3.2260    0.0000 C   0  0  0  0  0  0  0  0  0  0  0  0
   -2.8518   -1.9725    0.0000 O   0  0  0  0  0  0  0  0  0  0  0  0
    1.3846   -1.9725    0.0000 O   0  0  0  0  0  0  0  0  0  0  0  0
   -2.1863   -3.2260    0.0000 C   0  0  0  0  0  0  0  0  0  0  0  0
    0.6462   -0.2672    0.0000 Cl  0  0  0  0  0  0  0  0  0  0  0  0
    3.4543   -3.2260    0.0000 N   0  0  0  0  0  0  0  0  0  0  0  0
   -1.4818    0.0680    0.0000 C   0  0  0  0  0  0  0  0  0  0  0  0
    1.3846   -2.8179    0.0000 O   0  0  0  0  0  0  0  0  0  0  0  0
   -0.0534    0.8842    0.0000 C   0  0  0  0  0  0  0  0  0  0  0  0
    2.7450   -2.8179    0.0000 C   0  0  0  0  0  0  0  0  0  0  0  0
    2.0697   -1.5644    0.0000 C   0  0  0  0  0  0  0  0  0  0  0  0
    2.0697   -3.2260    0.0000 C   0  0  0  0  0  0  0  0  0  0  0  0
   -3.5660   -1.5644    0.0000 C   0  0  0  0  0  0  0  0  0  0  0  0
   -1.4818    0.8842    0.0000 C   0  0  0  0  0  0  0  0  0  0  0  0
    2.7742   -1.9288    0.0000 C   0  0  0  0  0  0  0  0  0  0  0  0
   -0.7725    1.3069    0.0000 C   0  0  0  0  0  0  0  0  0  0  0  0
  2  1  2  0
  3  1  1  0
  4  1  1  0
  5  3  2  0
  6  3  1  0
  7  6  2  0
  8  5  1  0
  9  8  2  0
  7  9  1  0
 11 12  1  0
 12 10  1  0
 13 15  1  0
 14 10  2  0
 15 14  1  0
 16 10  1  0
 17 11  1  0
 18 12  1  0
 19 18  1  0
 20 16  2  0
 21 17  2  0
 22 13  1  0
 23 16  1  0
 24 17  1  0
 25 14  1  0
 26 19  1  0
 27 31  1  0
 28 18  2  0
 29 22  1  0
 30 19  2  0
 31 33  1  0
 32 24  1  0
 33 29  1  0
 34 23  1  0
 35 28  1  0
 36 32  1  0
 37 35  2  0
 11 13  2  0
 30 37  1  0
M  END
> <chembl_id>
CHEMBL4594262

> <chembl_pref_name>
AMLODIPINE BENZOATE

$$$$

     RDKit          2D

 57 62  0  0  0  0  0  0  0  0999 V2000
   -4.8382    1.6557    0.0000 C   0  0  0  0  0  0  0  0  0  0  0  0
   -4.0312    1.4842    0.0000 C   0  0  0  0  0  0  0  0  0  0  0  0
   -3.4792    2.0973    0.0000 N   0  0  0  0  0  0  0  0  0  0  0  0
   -3.7341    2.8819    0.0000 C   0  0  0  0  0  0  0  0  0  0  0  0
   -4.5411    3.0534    0.0000 C   0  0  0  0  0  0  0  0  0  0  0  0
   -5.0931    2.4403    0.0000 C   0  0  0  0  0  0  0  0  0  0  0  0
   -2.1202    2.5388    0.0000 C   0  0  0  0  0  0  0  0  0  0  0  0
   -2.3751    3.3235    0.0000 C   0  0  0  0  0  0  0  0  0  0  0  0
   -3.1821    3.4950    0.0000 S   0  0  0  0  0  0  0  0  0  0  0  0
   -1.3132    2.3673    0.0000 C   0  0  0  0  0  0  0  0  0  0  0  0
   -0.7612    2.9804    0.0000 C   0  0  0  0  0  0  0  0  0  0  0  0
   -1.0161    3.7650    0.0000 C   0  0  0  0  0  0  0  0  0  0  0  0
   -1.8231    3.9366    0.0000 C   0  0  0  0  0  0  0  0  0  0  0  0
   -0.4641    4.3781    0.0000 C   0  0  0  0  0  0  0  0  0  0  0  0
   -0.7190    5.1628    0.0000 C   0  0  0  0  0  0  0  0  0  0  0  0
   -1.5260    5.3343    0.0000 N   0  0  0  0  0  0  0  0  0  0  0  0
   -2.0780    4.7212    0.0000 C   0  0  0  0  0  0  0  0  0  0  0  0
    0.3429    4.2066    0.0000 C   0  0  0  0  0  0  0  0  0  0  0  0
    0.8949    4.8197    0.0000 C   0  0  0  0  0  0  0  0  0  0  0  0
    0.6400    5.6043    0.0000 C   0  0  0  0  0  0  0  0  0  0  0  0
   -0.1670    5.7759    0.0000 C   0  0  0  0  0  0  0  0  0  0  0  0
    1.1920    6.2174    0.0000 C   0  0  0  0  0  0  0  0  0  0  0  0
    0.9370    7.0021    0.0000 O   0  0  0  0  0  0  0  0  0  0  0  0
    1.9990    6.0459    0.0000 O   0  0  0  0  0  0  0  0  0  0  0  0
   -4.7960    3.8380    0.0000 C   0  0  0  0  0  0  0  0  0  0  0  0
   -4.2440    4.4511    0.0000 N   0  0  0  0  0  0  0  0  0  0  0  0
   -4.4990    5.2357    0.0000 C   0  0  0  0  0  0  0  0  0  0  0  0
   -5.3059    5.4073    0.0000 C   0  0  0  0  0  0  0  0  0  0  0  0
   -5.8580    4.7942    0.0000 C   0  0  0  0  0  0  0  0  0  0  0  0
   -5.6030    4.0095    0.0000 C   0  0  0  0  0  0  0  0  0  0  0  0
   -6.1550    3.3964    0.0000 N   0  0  0  0  0  0  0  0  0  0  0  0
   -3.9469    5.8488    0.0000 C   0  0  0  0  0  0  0  0  0  0  0  0
   -4.2019    6.6335    0.0000 N   0  0  0  0  0  0  0  0  0  0  0  0
   -3.6499    7.2466    0.0000 C   0  0  0  0  0  0  0  0  0  0  0  0
   -3.9218    8.0255    0.0000 C   0  0  0  0  0  0  0  0  0  0  0  0
   -3.3832    8.6504    0.0000 C   0  0  0  0  0  0  0  0  0  0  0  0
   -3.6551    9.4293    0.0000 C   0  0  0  0  0  0  0  0  0  0  0  0
   -4.4656    9.5833    0.0000 C   0  0  0  0  0  0  0  0  0  0  0  0
   -5.0042    8.9583    0.0000 N   0  0  0  0  0  0  0  0  0  0  0  0
   -1.7675    6.2042    0.0000 C   0  0  0  0  0  0  0  0  0  0  0  0
   -1.4319    6.9579    0.0000 C   0  0  0  0  0  0  0  0  0  0  0  0
   -2.0450    7.5099    0.0000 N   0  0  0  0  0  0  0  0  0  0  0  0
   -3.1400    5.6773    0.0000 O   0  0  0  0  0  0  0  0  0  0  0  0
   -2.7595    7.0974    0.0000 C   0  0  0  0  0  0  0  0  0  0  0  0
   -1.9588    8.3304    0.0000 C   0  0  0  0  0  0  0  0  0  0  0  0
   -2.6127    6.2855    0.0000 O   0  0  0  0  0  0  0  0  0  0  0  0
   -0.6249    7.1294    0.0000 C   0  0  0  0  0  0  0  0  0  0  0  0
   -0.3700    7.9140    0.0000 C   0  0  0  0  0  0  0  0  0  0  0  0
   -0.8549    8.5815    0.0000 C   0  0  0  0  0  0  0  0  0  0  0  0
    0.4146    8.1690    0.0000 C   0  0  0  0  0  0  0  0  0  0  0  0
    0.4146    8.9940    0.0000 C   0  0  0  0  0  0  0  0  0  0  0  0
   -0.3700    9.2489    0.0000 N   0  0  0  0  0  0  0  0  0  0  0  0
    1.1291    7.7565    0.0000 C   0  0  0  0  0  0  0  0  0  0  0  0
    1.8436    8.1690    0.0000 C   0  0  0  0  0  0  0  0  0  0  0  0
    1.8436    8.9940    0.0000 C   0  0  0  0  0  0  0  0  0  0  0  0
    1.1291    9.4065    0.0000 C   0  0  0  0  0  0  0  0  0  0  0  0
   -2.5688    6.0080    0.0000 O   0  0  0  0  0  0  0  0  0  0  0  0
  1  2  2  0
  2  3  1  0
  3  4  2  0
  4  5  1  0
  5  6  2  0
  1  6  1  0
  7  8  2  0
  8  9  1  0
  4  9  1  0
 10 11  2  0
 11 12  1  0
 12 13  2  0
  7 10  1  0
  8 13  1  0
 14 15  2  0
 16 17  1  0
 13 17  1  0
 12 14  1  0
 18 19  2  0
 19 20  1  0
 20 21  2  0
 14 18  1  0
 21 15  1  0
 22 23  2  0
 20 22  1  0
 22 24  1  0
  5 25  1  0
 25 26  1  0
 27 28  1  1
 28 29  1  0
 29 30  1  0
 30 31  1  0
 26 27  1  0
 32 33  1  0
 33 34  1  0
 27 32  1  0
 35 36  1  0
 36 37  1  0
 37 38  1  0
 38 39  1  0
 34 35  1  1
 40 41  1  0
 41 42  1  0
 16 40  1  0
 32 43  2  0
 34 44  1  0
 44 42  1  0
 42 45  1  0
 44 46  2  0
 41 47  1  1
 47 48  1  0
 50 51  1  0
 51 52  1  0
 49 52  1  0
 49 48  2  0
 48 50  1  0
 53 54  1  0
 54 55  2  0
 55 56  1  0
 50 53  2  0
 51 56  2  0
 40 57  2  0
M  END
> <chembl_id>
CHEMBL5314563

> <chembl_pref_name>
ZOSURABALPIN

$$$$

     RDKit          2D

 25 28  0  0  0  0  0  0  0  0999 V2000
   -4.4984   -1.4793    0.0000 C   0  0  0  0  0  0  0  0  0  0  0  0
   -3.7839   -1.0668    0.0000 C   0  0  0  0  0  0  0  0  0  0  0  0
   -3.7839   -0.2418    0.0000 C   0  0  0  0  0  0  0  0  0  0  0  0
   -4.4984    0.1707    0.0000 C   0  0  0  0  0  0  0  0  0  0  0  0
   -5.2128   -0.2418    0.0000 C   0  0  0  0  0  0  0  0  0  0  0  0
   -5.2128   -1.0668    0.0000 C   0  0  0  0  0  0  0  0  0  0  0  0
   -3.0694   -1.4793    0.0000 C   0  0  0  0  0  0  0  0  0  0  0  0
   -2.3549   -1.0669    0.0000 C   0  0  0  0  0  0  0  0  0  0  0  0
   -2.3549   -0.2419    0.0000 C   0  0  0  0  0  0  0  0  0  0  0  0
   -3.0694    0.1707    0.0000 N   0  0  0  0  0  0  0  0  0  0  0  0
   -0.9260   -0.2419    0.0000 C   0  0  0  0  0  0  0  0  0  0  0  0
   -1.6405    0.1706    0.0000 C   0  0  0  0  0  0  0  0  0  0  0  0
   -0.2115    0.1706    0.0000 N   0  0  0  0  0  0  0  0  0  0  0  0
   -0.2115    0.9956    0.0000 C   0  0  0  0  0  0  0  0  0  0  0  0
    0.5030   -0.2419    0.0000 C   0  0  0  0  0  0  0  0  0  0  0  0
    1.2174    0.1706    0.0000 C   0  0  0  0  0  0  0  0  0  0  0  0
    1.2174    0.9956    0.0000 N   0  0  0  0  0  0  0  0  0  0  0  0
    0.5030    1.4081    0.0000 C   0  0  0  0  0  0  0  0  0  0  0  0
    1.9319    1.4081    0.0000 C   0  0  0  0  0  0  0  0  0  0  0  0
    2.6464    0.9956    0.0000 C   0  0  0  0  0  0  0  0  0  0  0  0
    3.3609    1.4081    0.0000 C   0  0  0  0  0  0  0  0  0  0  0  0
    3.3609    2.2331    0.0000 C   0  0  0  0  0  0  0  0  0  0  0  0
    2.6464    2.6456    0.0000 C   0  0  0  0  0  0  0  0  0  0  0  0
    1.9319    2.2331    0.0000 C   0  0  0  0  0  0  0  0  0  0  0  0
    2.6464    3.4706    0.0000 C   0  0  0  0  0  0  0  0  0  0  0  0
  1  2  1  0
  2  3  2  0
  3  4  1  0
  4  5  2  0
  5  6  1  0
  1  6  2  0
  7  8  2  0
  8  9  1  0
  9 10  2  0
  2  7  1  0
  3 10  1  0
 11 12  1  0
  9 12  1  0
 13 14  1  0
 11 13  1  0
 15 16  1  0
 16 17  1  0
 17 18  1  0
 13 15  1  0
 14 18  1  0
 20 21  2  0
 21 22  1  0
 22 23  2  0
 23 24  1  0
 19 20  1  0
 19 24  2  0
 17 19  1  0
 23 25  1  0
M  END
> <chembl_id>
CHEMBL4594437

> <chembl_pref_name>
CENTHAQUINE

$$$$

     RDKit          2D

 18 19  0  0  0  0  0  0  0  0999 V2000
   -1.6083   -1.5417    0.0000 C   0  0  0  0  0  0  0  0  0  0  0  0
   -0.2833   -1.5417    0.0000 C   0  0  0  0  0  0  0  0  0  0  0  0
    1.6542   -0.3375    0.0000 N   0  0  0  0  0  0  0  0  0  0  0  0
    0.3292   -0.3375    0.0000 C   0  0  0  0  0  0  0  0  0  0  0  0
   -2.4208   -0.4125    0.0000 C   0  0  0  0  0  0  0  0  0  0  0  0
   -2.2583   -2.7292    0.0000 O   0  0  0  0  0  0  0  0  0  0  0  0
   -1.7708    0.6458    0.0000 C   0  0  0  0  0  0  0  0  0  0  0  0
   -3.6250   -0.4125    0.0000 C   0  0  0  0  0  0  0  0  0  0  0  0
   -2.3833    1.7250    0.0000 C   0  0  0  0  0  0  0  0  0  0  0  0
   -4.3083    0.6125    0.0000 C   0  0  0  0  0  0  0  0  0  0  0  0
   -3.6625    1.7250    0.0000 C   0  0  0  0  0  0  0  0  0  0  0  0
    0.3792   -2.7500    0.0000 C   0  0  0  0  0  0  0  0  0  0  0  0
    2.3792   -1.4917    0.0000 C   0  0  0  0  0  0  0  0  0  0  0  0
    2.3042    0.7958    0.0000 C   0  0  0  0  0  0  0  0  0  0  0  0
   -4.3458    3.0583    0.0000 C   0  0  0  0  0  0  0  0  0  0  0  0
    3.7292   -1.4917    0.0000 C   0  0  0  0  0  0  0  0  0  0  0  0
    3.7292    0.7958    0.0000 C   0  0  0  0  0  0  0  0  0  0  0  0
    4.3417   -0.2792    0.0000 C   0  0  0  0  0  0  0  0  0  0  0  0
  2  1  1  0
  3  4  1  0
  4  2  1  0
  5  1  1  0
  6  1  2  0
  7  5  2  0
  8  5  1  0
  9  7  1  0
 10  8  2  0
 11 10  1  0
 12  2  1  0
 13  3  1  0
 14  3  1  0
 15 11  1  0
 16 13  1  0
 17 14  1  0
 18 17  1  0
  9 11  2  0
 16 18  1  0
M  END
> <chembl_id>
CHEMBL1076211

> <chembl_pref_name>
TOLPERISONE

$$$$

     RDKit          2D

 28 29  0  0  0  0  0  0  0  0999 V2000
   -9.3991  -25.7518    0.0000 C   0  0  0  0  0  0  0  0  0  0  0  0
  -10.1136  -26.1643    0.0000 C   0  0  0  0  0  0  0  0  0  0  0  0
  -10.1136  -26.9893    0.0000 C   0  0  0  0  0  0  0  0  0  0  0  0
   -9.3991  -27.4018    0.0000 C   0  0  0  0  0  0  0  0  0  0  0  0
   -8.6846  -26.9893    0.0000 C   0  0  0  0  0  0  0  0  0  0  0  0
   -8.6846  -26.1643    0.0000 C   0  0  0  0  0  0  0  0  0  0  0  0
   -9.3991  -23.9250    0.0000 C   0  0  0  0  0  0  0  0  0  0  0  0
   -8.6846  -23.5125    0.0000 C   0  0  0  0  0  0  0  0  0  0  0  0
   -8.6846  -22.6875    0.0000 C   0  0  0  0  0  0  0  0  0  0  0  0
   -9.3991  -22.2750    0.0000 N   0  0  0  0  0  0  0  0  0  0  0  0
  -10.1136  -22.6875    0.0000 C   0  0  0  0  0  0  0  0  0  0  0  0
  -10.1136  -23.5125    0.0000 C   0  0  0  0  0  0  0  0  0  0  0  0
  -10.8280  -22.2750    0.0000 C   0  0  0  0  0  0  0  0  0  0  0  0
   -7.9702  -22.2750    0.0000 C   0  0  0  0  0  0  0  0  0  0  0  0
   -7.2557  -22.6875    0.0000 O   0  0  0  0  0  0  0  0  0  0  0  0
   -6.5412  -22.2750    0.0000 C   0  0  0  0  0  0  0  0  0  0  0  0
   -5.8268  -22.6875    0.0000 C   0  0  0  0  0  0  0  0  0  0  0  0
   -5.1123  -22.2750    0.0000 N   0  0  0  0  0  0  0  0  0  0  0  0
   -7.9702  -23.9250    0.0000 C   0  0  0  0  0  0  0  0  0  0  0  0
   -7.2557  -23.5125    0.0000 O   0  0  0  0  0  0  0  0  0  0  0  0
   -7.9702  -24.7500    0.0000 O   0  0  0  0  0  0  0  0  0  0  0  0
   -6.5412  -23.9250    0.0000 C   0  0  0  0  0  0  0  0  0  0  0  0
   -5.8268  -23.5125    0.0000 C   0  0  0  0  0  0  0  0  0  0  0  0
  -10.8280  -23.9250    0.0000 C   0  0  0  0  0  0  0  0  0  0  0  0
  -10.8281  -24.7500    0.0000 O   0  0  0  0  0  0  0  0  0  0  0  0
  -11.5425  -23.5125    0.0000 O   0  0  0  0  0  0  0  0  0  0  0  0
  -12.2570  -23.9250    0.0000 C   0  0  0  0  0  0  0  0  0  0  0  0
   -7.9701  -25.7518    0.0000 Cl  0  0  0  0  0  0  0  0  0  0  0  0
  1  2  1  0
  1  6  2  0
  2  3  2  0
  3  4  1  0
  4  5  2  0
  5  6  1  0
  7  1  1  1
  7  8  1  0
 12  7  1  0
  8  9  2  0
  9 10  1  0
 10 11  1  0
 11 12  2  0
 11 13  1  0
  9 14  1  0
 14 15  1  0
 15 16  1  0
 16 17  1  0
 17 18  1  0
  8 19  1  0
 19 20  1  0
 19 21  2  0
 20 22  1  0
 22 23  1  0
 12 24  1  0
 24 25  2  0
 24 26  1  0
 26 27  1  0
  6 28  1  0
M  END
> <chembl_id>
CHEMBL2111097

> <chembl_pref_name>
LEVAMLODIPINE

$$$$

     RDKit          2D

 26 26  0  0  0  0  0  0  0  0999 V2000
    2.2917   -5.1875    0.0000 C   0  0  0  0  0  0  0  0  0  0  0  0
    2.2917   -4.4667    0.0000 C   0  0  0  0  0  0  0  0  0  0  0  0
    2.9125   -5.5375    0.0000 C   0  0  0  0  0  0  0  0  0  0  0  0
    1.6750   -4.1167    0.0000 C   0  0  0  0  0  0  0  0  0  0  0  0
    1.0625   -4.4667    0.0000 C   0  0  0  0  0  0  0  0  0  0  0  0
    1.6750   -5.5417    0.0000 C   0  0  0  0  0  0  0  0  0  0  0  0
    1.0625   -5.1875    0.0000 C   0  0  0  0  0  0  0  0  0  0  0  0
    3.5292   -5.1792    0.0000 C   0  0  0  0  0  0  0  0  0  0  0  0
    7.2375   -5.1792    0.0000 C   0  0  0  0  0  0  0  0  0  0  0  0
    7.8500   -5.5375    0.0000 C   0  0  0  0  0  0  0  0  0  0  0  0
    5.3792   -5.5375    0.0000 C   0  0  0  0  0  0  0  0  0  0  0  0
    6.6167   -5.5375    0.0000 C   0  0  0  0  0  0  0  0  0  0  0  0
    4.1417   -5.5375    0.0000 C   0  0  0  0  0  0  0  0  0  0  0  0
    6.0000   -5.1792    0.0000 C   0  0  0  0  0  0  0  0  0  0  0  0
    4.7667   -5.1792    0.0000 C   0  0  0  0  0  0  0  0  0  0  0  0
    7.8500   -6.2417    0.0000 O   0  0  0  0  0  0  0  0  0  0  0  0
    0.4417   -4.1167    0.0000 O   0  0  0  0  0  0  0  0  0  0  0  0
    8.4667   -5.1750    0.0000 O   0  0  0  0  0  0  0  0  0  0  0  0
    2.9042   -4.1125    0.0000 C   0  0  0  0  0  0  0  0  0  0  0  0
    1.6667   -3.4042    0.0000 C   0  0  0  0  0  0  0  0  0  0  0  0
    1.6750   -6.2542    0.0000 C   0  0  0  0  0  0  0  0  0  0  0  0
    6.6167   -6.2417    0.0000 C   0  0  0  0  0  0  0  0  0  0  0  0
    4.1417   -6.2500    0.0000 C   0  0  0  0  0  0  0  0  0  0  0  0
    9.0875   -5.5292    0.0000 C   0  0  0  0  0  0  0  0  0  0  0  0
    0.4417   -3.4042    0.0000 C   0  0  0  0  0  0  0  0  0  0  0  0
    9.7000   -5.1750    0.0000 C   0  0  0  0  0  0  0  0  0  0  0  0
  2  1  1  0
  3  1  1  0
  4  2  2  0
  5  7  2  0
  6  1  2  0
  7  6  1  0
  8  3  2  0
  9 12  2  0
 10  9  1  0
 11 15  1  0
 12 14  1  0
 13  8  1  0
 14 11  2  0
 15 13  2  0
 16 10  2  0
 17  5  1  0
 18 10  1  0
 19  2  1  0
 20  4  1  0
 21  6  1  0
 22 12  1  0
 23 13  1  0
 24 18  1  0
 25 17  1  0
 26 24  1  0
  5  4  1  0
M  END
> <chembl_id>
CHEMBL464

> <chembl_pref_name>
ETRETINATE

$$$$

     RDKit          2D

 24 26  0  0  0  0  0  0  0  0999 V2000
   -1.1125    0.0000    0.0000 C   0  0  0  0  0  0  0  0  0  0  0  0
   -0.1083    0.0000    0.0000 N   0  0  0  0  0  0  0  0  0  0  0  0
   -1.6833   -0.8125    0.0000 C   0  0  0  0  0  0  0  0  0  0  0  0
   -1.6833    0.7875    0.0000 C   0  0  0  0  0  0  0  0  0  0  0  0
   -2.6083   -0.5125    0.0000 C   0  0  0  0  0  0  0  0  0  0  0  0
   -2.6083    0.4875    0.0000 C   0  0  0  0  0  0  0  0  0  0  0  0
    0.3792    0.8708    0.0000 C   0  0  0  0  0  0  0  0  0  0  0  0
    1.3792   -0.8667    0.0000 C   0  0  0  0  0  0  0  0  0  0  0  0
    2.8417   -1.7042    0.0000 N   0  0  0  0  0  0  0  0  0  0  0  0
    0.3792   -0.8667    0.0000 C   0  0  0  0  0  0  0  0  0  0  0  0
    1.8667   -1.7042    0.0000 C   0  0  0  0  0  0  0  0  0  0  0  0
   -3.4750   -1.0000    0.0000 C   0  0  0  0  0  0  0  0  0  0  0  0
   -3.4750    0.9833    0.0000 C   0  0  0  0  0  0  0  0  0  0  0  0
   -0.1375    1.7458    0.0000 C   0  0  0  0  0  0  0  0  0  0  0  0
    1.3542    0.8708    0.0000 C   0  0  0  0  0  0  0  0  0  0  0  0
    3.3375   -0.8667    0.0000 C   0  0  0  0  0  0  0  0  0  0  0  0
    3.3625   -2.6000    0.0000 C   0  0  0  0  0  0  0  0  0  0  0  0
    2.8417    0.0000    0.0000 C   0  0  0  0  0  0  0  0  0  0  0  0
    4.3417   -2.6000    0.0000 C   0  0  0  0  0  0  0  0  0  0  0  0
   -4.3458    0.4625    0.0000 C   0  0  0  0  0  0  0  0  0  0  0  0
   -4.3458   -0.4792    0.0000 C   0  0  0  0  0  0  0  0  0  0  0  0
    1.8417    1.7125    0.0000 C   0  0  0  0  0  0  0  0  0  0  0  0
    0.3792    2.6083    0.0000 C   0  0  0  0  0  0  0  0  0  0  0  0
    1.3542    2.6083    0.0000 C   0  0  0  0  0  0  0  0  0  0  0  0
  2  1  1  0
  3  1  1  0
  4  1  1  0
  5  3  1  0
  6  4  1  0
  7  2  1  0
  8 10  1  0
  9 11  1  0
 10  2  1  0
 11  8  1  0
 12  5  1  0
 13  6  1  0
 14  7  1  0
 15  7  2  0
 16  9  1  0
 17  9  1  0
 18 16  1  0
 19 17  1  0
 20 13  2  0
 21 12  2  0
 22 15  1  0
 23 14  2  0
 24 22  2  0
  5  6  2  0
 21 20  1  0
 23 24  1  0
M  END
> <chembl_id>
CHEMBL1213033

> <chembl_pref_name>
APRINDINE

$$$$

     RDKit          2D

 19 19  0  0  0  0  0  0  0  0999 V2000
    0.0000    1.6477    0.0000 C   0  0  0  0  0  0  0  0  0  0  0  0
    1.4283    0.0000    0.0000 N   0  0  0  0  0  0  0  0  0  0  0  0
    2.1443    2.8834    0.0000 O   0  0  0  0  0  0  0  0  0  0  0  0
    0.7155    2.8845    0.0000 O   0  0  0  0  0  0  0  0  0  0  0  0
    5.9259    2.5096    0.0000 F   0  0  0  0  0  0  0  0  0  0  0  0
    5.7107    4.1284    0.0000 F   0  0  0  0  0  0  0  0  0  0  0  0
    6.4298    2.8936    0.0000 F   0  0  0  0  0  0  0  0  0  0  0  0
    1.4289    0.8249    0.0000 C   0  0  0  0  0  0  0  0  0  0  0  0
    4.2873    1.6445    0.0000 C   0  0  0  0  0  0  0  0  0  0  0  0
    5.0037    2.0578    0.0000 C   0  0  0  0  0  0  0  0  0  0  0  0
    4.2855    3.2974    0.0000 C   0  0  0  0  0  0  0  0  0  0  0  0
    3.5737    2.8846    0.0000 C   0  0  0  0  0  0  0  0  0  0  0  0
    2.8578    1.6454    0.0000 N   0  0  0  0  0  0  0  0  0  0  0  0
    0.7148    2.0596    0.0000 C   0  0  0  0  0  0  0  0  0  0  0  0
    2.1437    2.0585    0.0000 C   0  0  0  0  0  0  0  0  0  0  0  0
    1.4289    1.6465    0.0000 C   0  0  0  0  0  0  0  0  0  0  0  0
    5.0008    2.8882    0.0000 C   0  0  0  0  0  0  0  0  0  0  0  0
    3.5725    2.0573    0.0000 C   0  0  0  0  0  0  0  0  0  0  0  0
    5.7138    3.3034    0.0000 C   0  0  0  0  0  0  0  0  0  0  0  0
  1 14  1  0
  2  8  3  0
  3 15  2  0
  4 14  1  0
  5 19  1  0
  6 19  1  0
  7 19  1  0
  8 16  1  0
  9 10  2  0
  9 18  1  0
 10 17  1  0
 11 12  1  0
 11 17  2  0
 12 18  2  0
 13 15  1  0
 13 18  1  0
 14 16  2  0
 15 16  1  0
 17 19  1  0
M  END
> <chembl_id>
CHEMBL973

> <chembl_pref_name>
TERIFLUNOMIDE

$$$$

     RDKit          2D

 21 23  0  0  0  0  0  0  0  0999 V2000
   -0.2833   -0.4792    0.0000 N   0  0  0  0  0  0  0  0  0  0  0  0
    3.1792   -0.4625    0.0000 N   0  0  0  0  0  0  0  0  0  0  0  0
    0.8500   -0.4792    0.0000 C   0  0  0  0  0  0  0  0  0  0  0  0
   -0.8583   -1.5042    0.0000 C   0  0  0  0  0  0  0  0  0  0  0  0
    1.4250   -1.5042    0.0000 C   0  0  0  0  0  0  0  0  0  0  0  0
    1.3167    0.4458    0.0000 C   0  0  0  0  0  0  0  0  0  0  0  0
   -0.8833    0.4583    0.0000 C   0  0  0  0  0  0  0  0  0  0  0  0
    2.5750   -1.5042    0.0000 C   0  0  0  0  0  0  0  0  0  0  0  0
    2.5875    0.4458    0.0000 C   0  0  0  0  0  0  0  0  0  0  0  0
   -2.0208   -1.5042    0.0000 C   0  0  0  0  0  0  0  0  0  0  0  0
    4.3417   -0.4625    0.0000 C   0  0  0  0  0  0  0  0  0  0  0  0
   -0.3083    1.4833    0.0000 C   0  0  0  0  0  0  0  0  0  0  0  0
   -2.0458    0.4583    0.0000 C   0  0  0  0  0  0  0  0  0  0  0  0
   -2.5833   -2.4917    0.0000 C   0  0  0  0  0  0  0  0  0  0  0  0
   -2.6083   -0.5125    0.0000 C   0  0  0  0  0  0  0  0  0  0  0  0
   -2.6375    1.4500    0.0000 C   0  0  0  0  0  0  0  0  0  0  0  0
   -0.9208    2.4958    0.0000 C   0  0  0  0  0  0  0  0  0  0  0  0
   -3.7708   -0.5125    0.0000 C   0  0  0  0  0  0  0  0  0  0  0  0
   -3.7458   -2.4917    0.0000 C   0  0  0  0  0  0  0  0  0  0  0  0
   -2.0833    2.4958    0.0000 C   0  0  0  0  0  0  0  0  0  0  0  0
   -4.3458   -1.5375    0.0000 C   0  0  0  0  0  0  0  0  0  0  0  0
  2  9  1  0
  3  1  1  0
  4  1  1  0
  5  3  1  0
  6  3  1  0
  7  1  1  0
  8  5  1  0
  9  6  1  0
 10  4  1  0
 11  2  1  0
 12  7  2  0
 13  7  1  0
 14 10  1  0
 15 10  2  0
 16 13  2  0
 17 12  1  0
 18 15  1  0
 19 14  2  0
 20 16  1  0
 21 18  2  0
  8  2  1  0
 17 20  2  0
 19 21  1  0
M  END
> <chembl_id>
CHEMBL520400

> <chembl_pref_name>
BAMIPINE

$$$$

     RDKit          2D

 54 59  0  0  1  0  0  0  0  0999 V2000
   24.5368    2.5045    0.0000 C   0  0  0  0  0  0  0  0  0  0  0  0
   24.1243    3.2190    0.0000 C   0  0  0  0  0  0  0  0  0  0  0  0
   23.2992    3.2190    0.0000 C   0  0  0  0  0  0  0  0  0  0  0  0
   22.8867    2.5045    0.0000 C   0  0  0  0  0  0  0  0  0  0  0  0
   23.2992    1.7901    0.0000 C   0  0  0  0  0  0  0  0  0  0  0  0
   24.1243    1.7901    0.0000 C   0  0  0  0  0  0  0  0  0  0  0  0
   24.6762    1.1770    0.0000 N   0  0  0  0  0  0  0  0  0  0  0  0
   25.4299    1.5125    0.0000 C   0  0  0  0  0  0  0  0  0  0  0  0
   25.3437    2.3330    0.0000 C   0  0  0  0  0  0  0  0  0  0  0  0
   26.0112    2.8179    0.0000 C   0  0  0  0  0  0  0  0  0  0  0  0
   26.7649    2.4824    0.0000 C   0  0  0  0  0  0  0  0  0  0  0  0
   26.8511    1.6619    0.0000 N   0  0  0  0  0  0  0  0  0  0  0  0
   26.1836    1.1770    0.0000 C   0  0  0  0  0  0  0  0  0  0  0  0
   27.6048    1.3263    0.0000 C   0  0  0  0  0  0  0  0  0  0  0  0
   27.6910    0.5058    0.0000 C   0  0  0  0  0  0  0  0  0  0  0  0
   27.0236    0.0209    0.0000 C   0  0  0  0  0  0  0  0  0  0  0  0
   26.2699    0.3565    0.0000 C   0  0  0  0  0  0  0  0  0  0  0  0
   28.4447    0.1703    0.0000 C   0  0  0  0  0  0  0  0  0  0  0  0
   28.5309   -0.6502    0.0000 C   0  0  0  0  0  0  0  0  0  0  0  0
   27.8635   -1.1351    0.0000 C   0  0  0  0  0  0  0  0  0  0  0  0
   27.1098   -0.7996    0.0000 C   0  0  0  0  0  0  0  0  0  0  0  0
   29.2846   -0.9858    0.0000 O   0  0  0  0  0  0  0  0  0  0  0  0
   29.9991   -0.5733    0.0000 C   0  0  0  0  0  0  0  0  0  0  0  0
   30.7135   -0.9858    0.0000 C   0  0  0  0  0  0  0  0  0  0  0  0
   29.9991    0.2517    0.0000 O   0  0  0  0  0  0  0  0  0  0  0  0
   30.7135   -1.8108    0.0000 C   0  0  0  0  0  0  0  0  0  0  0  0
   31.4280   -2.2233    0.0000 C   0  0  0  0  0  0  0  0  0  0  0  0
   32.1425   -1.8108    0.0000 C   0  0  0  0  0  0  0  0  0  0  0  0
   32.1425   -0.9858    0.0000 C   0  0  0  0  0  0  0  0  0  0  0  0
   31.4280   -0.5733    0.0000 C   0  0  0  0  0  0  0  0  0  0  0  0
   32.8570   -0.5733    0.0000 O   0  0  0  0  0  0  0  0  0  0  0  0
   32.8570   -2.2233    0.0000 O   0  0  0  0  0  0  0  0  0  0  0  0
   31.4280   -3.0483    0.0000 O   0  0  0  0  0  0  0  0  0  0  0  0
   33.5714   -1.8108    0.0000 C   0  0  0  0  0  0  0  0  0  0  0  0
   32.8570    0.2517    0.0000 C   0  0  0  0  0  0  0  0  0  0  0  0
   32.1425   -3.4608    0.0000 C   0  0  0  0  0  0  0  0  0  0  0  0
   27.9497   -1.9556    0.0000 O   0  0  0  0  0  0  0  0  0  0  0  0
   27.2823   -2.4405    0.0000 C   0  0  0  0  0  0  0  0  0  0  0  0
   26.4423   -1.2845    0.0000 C   0  0  0  0  0  0  0  0  0  0  0  0
   25.6887   -0.9489    0.0000 O   0  0  0  0  0  0  0  0  0  0  0  0
   26.5286   -2.1050    0.0000 O   0  0  0  0  0  0  0  0  0  0  0  0
   25.0212   -1.4338    0.0000 C   0  0  0  0  0  0  0  0  0  0  0  0
   28.4118    0.9665    0.0000 H   0  0  0  0  0  0  0  0  0  0  0  0
   26.4197   -0.3619    0.0000 H   0  0  0  0  0  0  0  0  0  0  0  0
   25.6187    0.6189    0.0000 H   0  0  0  0  0  0  0  0  0  0  0  0
   22.0617    2.5045    0.0000 O   0  0  0  0  0  0  0  0  0  0  0  0
   21.6492    1.7901    0.0000 C   0  0  0  0  0  0  0  0  0  0  0  0
   24.5047    0.3700    0.0000 C   0  0  0  0  0  0  0  0  0  0  0  0
   23.7902   -0.0425    0.0000 C   0  0  0  0  0  0  0  0  0  0  0  0
   23.7902   -0.8675    0.0000 N   0  0  0  0  0  0  0  0  0  0  0  0
   23.0758   -1.2800    0.0000 C   0  0  0  0  0  0  0  0  0  0  0  0
   24.5047   -1.2800    0.0000 C   0  0  0  0  0  0  0  0  0  0  0  0
   24.5047   -2.1050    0.0000 C   0  0  0  0  0  0  0  0  0  0  0  0
   23.0758   -2.1050    0.0000 C   0  0  0  0  0  0  0  0  0  0  0  0
  1  2  2  0
  2  3  1  0
  3  4  2  0
  4  5  1  0
  5  6  2  0
  6  7  1  0
  1  6  1  0
  1  9  1  0
  7  8  1  0
 13  8  1  0
  8  9  2  0
  9 10  1  0
 10 11  1  0
 11 12  1  0
 12 14  1  0
 13 12  1  0
 17 13  1  0
 14 15  1  0
 16 17  1  0
 15 18  1  0
 16 15  1  0
 21 16  1  0
 18 19  1  0
 19 20  1  0
 20 21  1  0
 19 22  1  1
 22 23  1  0
 23 24  1  0
 23 25  2  0
 24 26  1  0
 24 30  2  0
 26 27  2  0
 27 28  1  0
 28 29  2  0
 29 30  1  0
 29 31  1  0
 28 32  1  0
 27 33  1  0
 32 34  1  0
 31 35  1  0
 33 36  1  0
 20 37  1  6
 37 38  1  0
 21 39  1  1
 39 40  1  0
 39 41  2  0
 40 42  1  0
 15 43  1  6
 16 44  1  6
 13 45  1  1
  4 46  1  0
 46 47  1  0
  7 48  1  0
 48 49  1  0
 49 50  1  0
 50 51  1  0
 50 52  1  0
 52 53  1  0
 51 54  1  0
M  END
> <chembl_id>
CHEMBL3989595

> <chembl_pref_name>
BIETASERPINE

$$$$

     RDKit          2D

 34 38  0  0  0  0  0  0  0  0999 V2000
    6.8136  -75.7527    0.0000 C   0  0  0  0  0  0  0  0  0  0  0  0
    6.0991  -75.3402    0.0000 C   0  0  0  0  0  0  0  0  0  0  0  0
    5.3846  -75.7527    0.0000 C   0  0  0  0  0  0  0  0  0  0  0  0
    5.3846  -76.5777    0.0000 C   0  0  0  0  0  0  0  0  0  0  0  0
    6.0991  -76.9902    0.0000 C   0  0  0  0  0  0  0  0  0  0  0  0
    6.8136  -76.5777    0.0000 C   0  0  0  0  0  0  0  0  0  0  0  0
    7.5281  -75.3402    0.0000 C   0  0  0  0  0  0  0  0  0  0  0  0
    8.2426  -75.7527    0.0000 C   0  0  0  0  0  0  0  0  0  0  0  0
    8.2425  -76.5777    0.0000 C   0  0  0  0  0  0  0  0  0  0  0  0
    7.5281  -76.9902    0.0000 C   0  0  0  0  0  0  0  0  0  0  0  0
    7.5281  -74.5151    0.0000 C   0  0  0  0  0  0  0  0  0  0  0  0
    8.2425  -74.1026    0.0000 C   0  0  0  0  0  0  0  0  0  0  0  0
    8.9570  -74.5151    0.0000 C   0  0  0  0  0  0  0  0  0  0  0  0
    8.9570  -75.3401    0.0000 C   0  0  0  0  0  0  0  0  0  0  0  0
    9.7416  -75.5950    0.0000 C   0  0  0  0  0  0  0  0  0  0  0  0
   10.2265  -74.9276    0.0000 C   0  0  0  0  0  0  0  0  0  0  0  0
    9.7416  -74.2602    0.0000 C   0  0  0  0  0  0  0  0  0  0  0  0
    6.8136  -74.1027    0.0000 C   0  0  0  0  0  0  0  0  0  0  0  0
    6.8136  -73.2776    0.0000 C   0  0  0  0  0  0  0  0  0  0  0  0
    6.0991  -72.8652    0.0000 C   0  0  0  0  0  0  0  0  0  0  0  0
    5.3846  -73.2777    0.0000 C   0  0  0  0  0  0  0  0  0  0  0  0
    5.3846  -74.1027    0.0000 C   0  0  0  0  0  0  0  0  0  0  0  0
    6.0991  -74.5152    0.0000 C   0  0  0  0  0  0  0  0  0  0  0  0
    4.6701  -72.8652    0.0000 N   0  0  0  0  0  0  0  0  0  0  0  0
    3.9557  -73.2778    0.0000 C   0  0  0  0  0  0  0  0  0  0  0  0
    4.6701  -72.0402    0.0000 C   0  0  0  0  0  0  0  0  0  0  0  0
    8.2426  -74.9277    0.0000 H   0  0  0  0  0  0  0  0  0  0  0  0
    8.9570  -76.1651    0.0000 H   0  0  0  0  0  0  0  0  0  0  0  0
    4.6701  -76.9902    0.0000 O   0  0  0  0  0  0  0  0  0  0  0  0
    8.9570  -73.6901    0.0000 C   0  0  0  0  0  0  0  0  0  0  0  0
    9.7417  -73.4352    0.0000 C   0  0  0  0  0  0  0  0  0  0  0  0
    9.0271  -73.0227    0.0000 O   0  0  0  0  0  0  0  0  0  0  0  0
   10.4560  -73.0227    0.0000 C   0  0  0  0  0  0  0  0  0  0  0  0
   10.3437  -73.7545    0.0000 O   0  0  0  0  0  0  0  0  0  0  0  0
  1  2  1  0
  2  3  1  0
  3  4  1  0
  4  5  1  0
  5  6  2  0
  1  7  2  0
  6  1  1  0
 10  6  1  0
  8  9  1  0
  9 10  1  0
 14  8  1  0
  8  7  1  0
  7 11  1  0
 11 12  1  0
 12 13  1  0
 13 17  1  0
 13 14  1  0
 14 15  1  0
 15 16  1  0
 16 17  1  0
 11 18  1  1
 18 19  1  0
 18 23  2  0
 19 20  2  0
 20 21  1  0
 21 22  2  0
 22 23  1  0
 21 24  1  0
 24 25  1  0
 24 26  1  0
  8 27  1  1
 14 28  1  6
  4 29  2  0
 13 30  1  1
 17 31  1  0
 31 32  2  0
 31 33  1  0
 17 34  1  6
M  END
> <chembl_id>
CHEMBL2103846

> <chembl_pref_name>
ULIPRISTAL

$$$$

     RDKit          2D

 22 24  0  0  0  0  0  0  0  0999 V2000
    0.6639   -0.0025    0.0000 C   0  0  0  0  0  0  0  0  0  0  0  0
   -0.9859   -0.0025    0.0000 N   0  0  0  0  0  0  0  0  0  0  0  0
    0.2626   -0.7233    0.0000 C   0  0  0  0  0  0  0  0  0  0  0  0
    0.2626    0.7134    0.0000 C   0  0  0  0  0  0  0  0  0  0  0  0
   -0.5722    0.7134    0.0000 C   0  0  0  0  0  0  0  0  0  0  0  0
   -0.5623   -0.7233    0.0000 C   0  0  0  0  0  0  0  0  0  0  0  0
    1.1915    0.6317    0.0000 C   0  0  0  0  0  0  0  0  0  0  0  0
   -1.8109   -0.0055    0.0000 C   0  0  0  0  0  0  0  0  0  0  0  0
   -2.2207   -0.7215    0.0000 C   0  0  0  0  0  0  0  0  0  0  0  0
   -2.2260    0.7074    0.0000 C   0  0  0  0  0  0  0  0  0  0  0  0
   -2.6358   -0.0085    0.0000 C   0  0  0  0  0  0  0  0  0  0  0  0
    1.3443   -0.4690    0.0000 C   0  0  0  0  0  0  0  0  0  0  0  0
    1.2805   -1.2915    0.0000 C   0  0  0  0  0  0  0  0  0  0  0  0
    1.9610   -1.7580    0.0000 C   0  0  0  0  0  0  0  0  0  0  0  0
    2.7052   -1.4020    0.0000 C   0  0  0  0  0  0  0  0  0  0  0  0
    2.7690   -0.5794    0.0000 C   0  0  0  0  0  0  0  0  0  0  0  0
    2.0886   -0.1129    0.0000 C   0  0  0  0  0  0  0  0  0  0  0  0
    2.0046    0.4918    0.0000 C   0  0  0  0  0  0  0  0  0  0  0  0
    2.5322    1.1260    0.0000 C   0  0  0  0  0  0  0  0  0  0  0  0
    2.2468    1.9000    0.0000 C   0  0  0  0  0  0  0  0  0  0  0  0
    1.4337    2.0399    0.0000 C   0  0  0  0  0  0  0  0  0  0  0  0
    0.9061    1.4057    0.0000 C   0  0  0  0  0  0  0  0  0  0  0  0
  2  5  1  0
  3  1  1  0
  4  1  1  0
  5  4  1  0
  6  3  1  0
  7  1  1  0
  6  2  1  0
  2  8  1  0
  8  9  1  0
  8 10  1  0
  8 11  1  0
  1 12  1  0
 12 13  1  0
 12 17  2  0
 13 14  2  0
 14 15  1  0
 15 16  2  0
 16 17  1  0
  7 18  1  0
  7 22  2  0
 18 19  2  0
 19 20  1  0
 20 21  2  0
 21 22  1  0
M  END
> <chembl_id>
CHEMBL334491

> <chembl_pref_name>
BUDIPINE

$$$$

     RDKit          2D

 26 29  0  0  0  0  0  0  0  0999 V2000
    1.1917   -0.2375    0.0000 N   0  0  0  0  0  0  0  0  0  0  0  0
    1.8417   -0.9375    0.0000 C   0  0  0  0  0  0  0  0  0  0  0  0
    0.2792   -0.5042    0.0000 C   0  0  0  0  0  0  0  0  0  0  0  0
    3.3292   -0.0917    0.0000 C   0  0  0  0  0  0  0  0  0  0  0  0
    1.3500    0.6708    0.0000 C   0  0  0  0  0  0  0  0  0  0  0  0
    2.7875   -0.8792    0.0000 C   0  0  0  0  0  0  0  0  0  0  0  0
    3.0542    0.8000    0.0000 N   0  0  0  0  0  0  0  0  0  0  0  0
    2.1792    1.1583    0.0000 C   0  0  0  0  0  0  0  0  0  0  0  0
   -1.2875   -0.1167    0.0000 N   0  0  0  0  0  0  0  0  0  0  0  0
   -0.3833    0.1208    0.0000 C   0  0  0  0  0  0  0  0  0  0  0  0
    0.5292    1.1708    0.0000 N   0  0  0  0  0  0  0  0  0  0  0  0
   -3.1208   -0.6792    0.0000 N   0  0  0  0  0  0  0  0  0  0  0  0
    0.0917   -1.4375    0.0000 O   0  0  0  0  0  0  0  0  0  0  0  0
    4.2750   -0.2417    0.0000 O   0  0  0  0  0  0  0  0  0  0  0  0
   -1.5125   -1.0542    0.0000 C   0  0  0  0  0  0  0  0  0  0  0  0
   -1.9833    0.5083    0.0000 C   0  0  0  0  0  0  0  0  0  0  0  0
   -2.4333   -1.3292    0.0000 C   0  0  0  0  0  0  0  0  0  0  0  0
   -2.9083    0.2333    0.0000 C   0  0  0  0  0  0  0  0  0  0  0  0
    3.3167   -1.6750    0.0000 C   0  0  0  0  0  0  0  0  0  0  0  0
    1.4125   -1.8042    0.0000 C   0  0  0  0  0  0  0  0  0  0  0  0
    2.1792    2.1083    0.0000 C   0  0  0  0  0  0  0  0  0  0  0  0
   -4.0458   -0.9500    0.0000 C   0  0  0  0  0  0  0  0  0  0  0  0
    0.5292    2.1208    0.0000 C   0  0  0  0  0  0  0  0  0  0  0  0
    1.3542    2.5958    0.0000 C   0  0  0  0  0  0  0  0  0  0  0  0
    2.9000   -2.5250    0.0000 C   0  0  0  0  0  0  0  0  0  0  0  0
    1.9500   -2.5875    0.0000 C   0  0  0  0  0  0  0  0  0  0  0  0
  2  1  1  0
  3  1  1  0
  4  6  1  0
  5  1  1  0
  6  2  2  0
  7  8  1  0
  8  5  1  0
  9 10  1  0
 10  3  1  0
 11  5  2  0
 12 18  1  0
 13  3  2  0
 14  4  2  0
 15  9  1  0
 16  9  1  0
 17 15  1  0
 18 16  1  0
 19  6  1  0
 20  2  1  0
 21  8  2  0
 22 12  1  0
 23 11  1  0
 24 23  2  0
 25 26  1  0
 26 20  2  0
  7  4  1  0
 21 24  1  0
 19 25  2  0
 17 12  1  0
M  END
> <chembl_id>
CHEMBL9967

> <chembl_pref_name>
PIRENZEPINE

$$$$
