
     RDKit          3D

 22 26  0  0  0  0  0  0  0  0999 V2000
   -3.2649   -0.8206   -2.1005 C   0  0  0  0  0  0  0  0  0  0  0  0
   -2.1968   -0.0345   -1.4586 C   0  0  0  0  0  0  0  0  0  0  0  0
   -1.9305   -0.6325   -0.0880 C   0  0  1  0  0  0  0  0  0  0  0  0
   -3.2935   -0.4836    0.5848 C   0  0  0  0  0  0  0  0  0  0  0  0
   -3.7933    0.8781    0.2551 C   0  0  0  0  0  0  0  0  0  0  0  0
   -2.8427    1.9723    0.1907 C   0  0  0  0  0  0  0  0  0  0  0  0
   -1.4666    1.7160    0.0991 N   0  0  0  0  0  0  0  0  0  0  0  0
   -0.6306    2.7382    0.6758 C   0  0  0  0  0  0  0  0  0  0  0  0
    0.7925    2.5777    0.1976 C   0  0  0  0  0  0  0  0  0  0  0  0
    1.1326    1.1303    0.0626 C   0  0  0  0  0  0  0  0  0  0  0  0
    0.2545    0.1574    0.3491 C   0  0  0  0  0  0  0  0  0  0  0  0
    0.7341   -0.9652    0.1731 N   0  0  0  0  0  0  0  0  0  0  0  0
    2.0075   -0.8663   -0.2573 C   0  0  0  0  0  0  0  0  0  0  0  0
    2.9998   -1.7639   -0.6041 C   0  0  0  0  0  0  0  0  0  0  0  0
    4.2390   -1.3299   -1.0192 C   0  0  0  0  0  0  0  0  0  0  0  0
    4.4995    0.0228   -1.0920 C   0  0  0  0  0  0  0  0  0  0  0  0
    3.5473    0.9604   -0.7583 C   0  0  0  0  0  0  0  0  0  0  0  0
    2.3175    0.4982   -0.3467 C   0  0  0  0  0  0  0  0  0  0  0  0
   -0.0054   -2.3226    0.3941 C   0  0  1  0  0  0  0  0  0  0  0  0
   -0.5514   -1.9460    1.7615 O   0  0  0  0  0  0  0  0  0  0  0  0
   -1.4098   -1.8752   -0.3621 C   0  0  0  0  0  0  0  0  0  0  0  0
   -1.1388    0.3888    0.8425 C   0  0  2  0  0  0  0  0  0  0  0  0
  1  2  1  0
  3  2  1  6
  3  4  1  0
  4  5  1  0
  5  6  1  0
  6  7  1  0
  7  8  1  0
  8  9  1  0
  9 10  1  0
 10 11  2  0
 11 12  1  0
 12 13  1  0
 13 14  2  0
 14 15  1  0
 15 16  2  0
 16 17  1  0
 17 18  2  0
 12 19  1  0
 19 20  1  1
 19 21  1  0
 11 22  1  0
 21  3  1  0
 22  3  1  0
 22  7  1  6
 18 10  1  0
 18 13  1  0
M  END
>  <zinc_id>  (1) 
ZINC000000000835

>  <smiles>  (1) 
CC[C@@]12CCCN3CCc4c(n(c5ccccc45)[C@@H](O)C1)[C@@H]32

$$$$

     RDKit          3D

 24 25  0  0  0  0  0  0  0  0999 V2000
   -6.4079    1.7238   -1.6240 C   0  0  0  0  0  0  0  0  0  0  0  0
   -6.1633    0.4215   -0.8951 C   0  0  0  0  0  0  0  0  0  0  0  0
   -7.2574    0.1361    0.0676 C   0  0  0  0  0  0  0  0  0  0  0  0
   -6.2300   -0.6851   -1.9747 C   0  0  0  0  0  0  0  0  0  0  0  0
   -4.7756    0.3614   -0.2983 C   0  0  0  0  0  0  0  0  0  0  0  0
   -4.0646   -0.8310   -0.3411 C   0  0  0  0  0  0  0  0  0  0  0  0
   -2.7993   -0.9796    0.1304 C   0  0  0  0  0  0  0  0  0  0  0  0
   -2.1560    0.1350    0.7054 C   0  0  0  0  0  0  0  0  0  0  0  0
   -0.8401   -0.0917    1.1665 O   0  0  0  0  0  0  0  0  0  0  0  0
    0.1325   -0.0134    0.1465 C   0  0  0  0  0  0  0  0  0  0  0  0
   -0.2793    0.2796   -1.0119 O   0  0  0  0  0  0  0  0  0  0  0  0
    1.5742   -0.2766    0.4310 C   0  0  0  0  0  0  0  0  0  0  0  0
    2.3689    0.1727   -0.8011 C   0  0  0  0  0  0  0  0  0  0  0  0
    3.8129   -0.0978   -0.5578 C   0  0  0  0  0  0  0  0  0  0  0  0
    4.0316   -0.8589    0.7252 C   0  0  0  0  0  0  0  0  0  0  0  0
    5.4982   -1.2671    0.7484 C   0  0  0  0  0  0  0  0  0  0  0  0
    6.3054   -0.0584    0.7297 N   0  0  0  0  0  0  0  0  0  0  0  0
    6.3903    0.7835   -0.4334 C   0  0  0  0  0  0  0  0  0  0  0  0
    6.4228    0.1445   -1.5523 N   0  0  0  0  0  0  0  0  0  0  0  0
    6.4333    2.1872   -0.3344 N   0  0  0  0  0  0  0  0  0  0  0  0
    3.2028   -2.1107    0.7762 C   0  0  0  0  0  0  0  0  0  0  0  0
    1.7536   -1.8090    0.5419 C   0  0  0  0  0  0  0  0  0  0  0  0
   -2.8208    1.3102    0.7684 C   0  0  0  0  0  0  0  0  0  0  0  0
   -4.1324    1.4240    0.2683 C   0  0  0  0  0  0  0  0  0  0  0  0
  1  2  1  0
  2  3  1  0
  2  4  1  0
  2  5  1  0
  5  6  2  0
  6  7  1  0
  7  8  2  0
  8  9  1  0
  9 10  1  0
 10 11  2  0
 10 12  1  0
 12 13  1  0
 13 14  1  0
 14 15  1  0
 15 16  1  0
 16 17  1  0
 17 18  1  0
 18 19  2  0
 18 20  1  0
 15 21  1  0
 21 22  1  0
  8 23  1  0
 23 24  2  0
 24  5  1  0
 22 12  1  0
M  END
>  <zinc_id>  (2) 
ZINC000000000991

>  <smiles>  (2) 
CC(C)(C)c1ccc(OC(=O)C2CCC(CNC(=N)N)CC2)cc1

$$$$

     RDKit          3D

  9  9  0  0  0  0  0  0  0  0999 V2000
   -1.7859    1.7098    0.3898 C   0  0  0  0  0  0  0  0  0  0  0  0
   -0.7176    0.7227    0.1630 C   0  0  0  0  0  0  0  0  0  0  0  0
    0.6101    1.1018    0.1679 C   0  0  0  0  0  0  0  0  0  0  0  0
    1.6298    0.1955   -0.0421 C   0  0  0  0  0  0  0  0  0  0  0  0
    2.9706    0.5645   -0.0396 O   0  0  0  0  0  0  0  0  0  0  0  0
    1.2355   -1.1098   -0.2566 C   0  0  0  0  0  0  0  0  0  0  0  0
   -0.0815   -1.5050   -0.2649 C   0  0  0  0  0  0  0  0  0  0  0  0
   -1.0853   -0.5874   -0.0536 C   0  0  0  0  0  0  0  0  0  0  0  0
   -2.7755   -1.0920   -0.0638 Cl  0  0  0  0  0  0  0  0  0  0  0  0
  1  2  1  0
  2  3  2  0
  3  4  1  0
  4  5  1  0
  4  6  2  0
  6  7  1  0
  7  8  2  0
  8  9  1  0
  8  2  1  0
M  END
>  <zinc_id>  (3) 
ZINC000000001124

>  <smiles>  (3) 
Cc1cc(O)ccc1Cl

$$$$

     RDKit          3D

 17 18  0  0  0  0  0  0  0  0999 V2000
    0.4394    1.5477    1.5284 C   0  0  0  0  0  0  0  0  0  0  0  0
    0.8720    0.2929    0.8730 C   0  0  0  0  0  0  0  0  0  0  0  0
    2.1655    0.1884    0.4401 C   0  0  0  0  0  0  0  0  0  0  0  0
    3.1509    1.3130    0.6099 C   0  0  0  0  0  0  0  0  0  0  0  0
    4.5351    0.8487    0.1809 C   0  0  0  0  0  0  0  0  0  0  0  0
    2.7305    2.5171   -0.2064 C   0  0  0  0  0  0  0  0  0  0  0  0
    2.5618   -0.9840   -0.1683 C   0  0  0  0  0  0  0  0  0  0  0  0
    1.6375   -2.0252   -0.3254 C   0  0  0  0  0  0  0  0  0  0  0  0
    0.3467   -1.8677    0.1285 C   0  0  0  0  0  0  0  0  0  0  0  0
   -0.8519   -3.3212   -0.1195 Br  0  0  0  0  0  0  0  0  0  0  0  0
   -0.0827   -0.7078    0.7424 C   0  0  0  0  0  0  0  0  0  0  0  0
   -1.4196   -0.5349    1.2148 N   0  0  0  0  0  0  0  0  0  0  0  0
   -2.4422    0.0132    0.3786 C   0  0  0  0  0  0  0  0  0  0  0  0
   -2.4330   -0.1032   -0.8879 N   0  0  0  0  0  0  0  0  0  0  0  0
   -3.5914    0.5493   -1.4596 C   0  0  0  0  0  0  0  0  0  0  0  0
   -4.0181    1.5186   -0.3754 C   0  0  0  0  0  0  0  0  0  0  0  0
   -3.6004    0.7551    0.8124 N   0  0  0  0  0  0  0  0  0  0  0  0
  1  2  1  0
  2  3  2  0
  3  4  1  0
  4  5  1  0
  4  6  1  0
  3  7  1  0
  7  8  2  0
  8  9  1  0
  9 10  1  0
  9 11  2  0
 11 12  1  0
 12 13  1  0
 13 14  2  0
 14 15  1  0
 15 16  1  0
 16 17  1  0
 11  2  1  0
 17 13  1  0
M  END
>  <zinc_id>  (4) 
ZINC000000003538

>  <smiles>  (4) 
Cc1c(C(C)C)ccc(Br)c1NC1=NCCN1

$$$$

     RDKit          3D

 22 23  0  0  0  0  0  0  0  0999 V2000
   -2.2758    3.5516   -1.3531 C   0  0  0  0  0  0  0  0  0  0  0  0
   -2.7983    2.4273   -0.4952 C   0  0  0  0  0  0  0  0  0  0  0  0
   -3.9207    1.7293   -1.2208 C   0  0  0  0  0  0  0  0  0  0  0  0
   -3.2874    2.9065    0.8548 C   0  0  0  0  0  0  0  0  0  0  0  0
   -1.7003    1.4188   -0.2658 C   0  0  0  0  0  0  0  0  0  0  0  0
   -0.4537    1.5956   -0.8021 C   0  0  0  0  0  0  0  0  0  0  0  0
    0.5573    0.6876   -0.6033 C   0  0  0  0  0  0  0  0  0  0  0  0
    1.8677    0.8812   -1.1718 N   0  0  0  0  0  0  0  0  0  0  0  0
    2.8951   -0.0940   -0.9380 C   0  0  0  0  0  0  0  0  0  0  0  0
    4.1568    0.0626   -1.4675 C   0  0  0  0  0  0  0  0  0  0  0  0
    5.1412   -0.8370   -1.2645 N   0  0  0  0  0  0  0  0  0  0  0  0
    4.8500   -1.9129   -0.5152 C   0  0  0  0  0  0  0  0  0  0  0  0
    3.6160   -2.1093    0.0287 C   0  0  0  0  0  0  0  0  0  0  0  0
    2.6640   -1.1843   -0.2008 N   0  0  0  0  0  0  0  0  0  0  0  0
    0.2952   -0.4315    0.1617 C   0  0  0  0  0  0  0  0  0  0  0  0
   -0.9670   -0.6157    0.7079 C   0  0  0  0  0  0  0  0  0  0  0  0
   -1.2843   -1.8177    1.5418 C   0  0  0  0  0  0  0  0  0  0  0  0
   -0.0296   -2.6804    1.6293 C   0  0  0  0  0  0  0  0  0  0  0  0
   -1.7451   -1.3849    2.9144 C   0  0  0  0  0  0  0  0  0  0  0  0
   -2.3841   -2.6412    0.9315 C   0  0  0  0  0  0  0  0  0  0  0  0
   -1.9512    0.2961    0.4975 C   0  0  0  0  0  0  0  0  0  0  0  0
   -3.2457    0.1524    1.0304 O   0  0  0  0  0  0  0  0  0  0  0  0
  1  2  1  0
  2  3  1  0
  2  4  1  0
  2  5  1  0
  5  6  2  0
  6  7  1  0
  7  8  1  0
  8  9  1  0
  9 10  2  0
 10 11  1  0
 11 12  2  0
 12 13  1  0
 13 14  2  0
  7 15  2  0
 15 16  1  0
 16 17  1  0
 17 18  1  0
 17 19  1  0
 17 20  1  0
 16 21  2  0
 21 22  1  0
 21  5  1  0
 14  9  1  0
M  END
>  <zinc_id>  (5) 
ZINC000000003812

>  <smiles>  (5) 
CC(C)(C)c1cc(Nc2cnccn2)cc(C(C)(C)C)c1O

$$$$

     RDKit          3D

 19 20  0  0  0  0  0  0  0  0999 V2000
   -0.3649   -2.1497   -1.4501 C   0  0  0  0  0  0  0  0  0  0  0  0
   -0.5101   -1.3969   -0.0057 C   0  0  1  0  0  0  0  0  0  0  0  0
    0.8824   -0.7098   -0.0416 C   0  0  0  0  0  0  0  0  0  0  0  0
    1.7469   -0.7745    0.9664 C   0  0  0  0  0  0  0  0  0  0  0  0
    2.9318   -0.1323    0.8194 C   0  0  0  0  0  0  0  0  0  0  0  0
    3.9661   -0.0861    1.7687 C   0  0  0  0  0  0  0  0  0  0  0  0
    5.1101    0.5926    1.5051 C   0  0  0  0  0  0  0  0  0  0  0  0
    5.3468    1.2683    0.3304 C   0  0  0  0  0  0  0  0  0  0  0  0
    4.3288    1.2230   -0.6037 C   0  0  0  0  0  0  0  0  0  0  0  0
    3.1458    0.5256   -0.3407 C   0  0  0  0  0  0  0  0  0  0  0  0
    1.6705    0.2226   -1.1969 S   0  0  0  0  0  0  0  0  0  0  0  0
   -1.4088   -0.2731   -0.5560 N   0  0  0  0  0  0  0  0  0  0  0  0
   -1.0889    0.6197   -1.4196 O   0  0  0  0  0  0  0  0  0  0  0  0
   -2.7019   -0.3089    0.0067 C   0  0  0  0  0  0  0  0  0  0  0  0
   -3.0798   -1.1595    0.8575 O   0  0  0  0  0  0  0  0  0  0  0  0
   -3.7133    0.6612   -0.3687 N   0  0  0  0  0  0  0  0  0  0  0  0
   -4.9869    0.6064    0.2011 C   0  0  0  0  0  0  0  0  0  0  0  0
   -5.9885    1.5490   -0.1560 N   0  0  0  0  0  0  0  0  0  0  0  0
   -5.2860   -0.2775    1.0465 O   0  0  0  0  0  0  0  0  0  0  0  0
  2  1  1  6
  2  3  1  0
  3  4  2  0
  4  5  1  0
  5  6  2  0
  6  7  1  0
  7  8  2  0
  8  9  1  0
  9 10  2  0
 10 11  1  0
  2 12  1  0
 12 13  1  0
 12 14  1  0
 14 15  2  0
 14 16  1  0
 16 17  1  0
 17 18  1  0
 17 19  2  0
 11  3  1  0
 10  5  1  0
M  END
>  <zinc_id>  (6) 
ZINC000000005029

>  <smiles>  (6) 
C[C@@H](c1cc2ccccc2s1)N(O)C(=O)NC(N)=O

$$$$

     RDKit          3D

 16 17  0  0  0  0  0  0  0  0999 V2000
    1.1162    0.1381   -1.5751 O   0  0  0  0  0  0  0  0  0  0  0  0
    1.4551   -0.0719   -0.3496 C   0  0  0  0  0  0  0  0  0  0  0  0
    0.3771   -0.2574    0.5505 O   0  0  0  0  0  0  0  0  0  0  0  0
   -0.8716   -0.1438   -0.3218 C   0  0  2  0  0  0  0  0  0  0  0  0
   -1.3898    1.3232    0.4700 C   0  0  0  0  0  0  0  0  0  0  0  0
   -2.7549    1.2156    0.2707 N   0  0  0  0  0  0  0  0  0  0  0  0
   -3.0327   -0.3444   -0.0877 C   0  0  2  0  0  0  0  0  0  0  0  0
   -4.3101   -0.4294    0.7990 C   0  0  0  0  0  0  0  0  0  0  0  0
   -4.3720    0.1943    1.9268 O   0  0  0  0  0  0  0  0  0  0  0  0
   -5.3197   -1.1562    0.3524 O   0  0  0  0  0  0  0  0  0  0  0  0
   -1.8565   -0.9168    0.8948 C   0  0  0  0  0  0  0  0  0  0  0  0
    2.8810   -0.0686   -0.0357 C   0  0  0  0  0  0  0  0  0  0  0  0
    3.6213   -0.4457    1.0546 C   0  0  0  0  0  0  0  0  0  0  0  0
    4.8806   -0.1767    1.0337 C   0  0  0  0  0  0  0  0  0  0  0  0
    5.4901    0.4531    0.0089 C   0  0  0  0  0  0  0  0  0  0  0  0
    4.0858    0.6865   -1.0695 S   0  0  0  0  0  0  0  0  0  0  0  0
  1  2  2  0
  2  3  1  0
  4  3  1  1
  4  5  1  0
  5  6  1  0
  6  7  1  0
  7  8  1  1
  8  9  2  0
  8 10  1  0
  7 11  1  0
  2 12  1  0
 12 13  2  0
 13 14  1  0
 14 15  2  0
 15 16  1  0
 11  4  1  0
 16 12  1  0
M  END
>  <zinc_id>  (7) 
ZINC000000005307

>  <smiles>  (7) 
O=C(O[C@@H]1CN[C@H](C(=O)O)C1)c1cccs1

$$$$

     RDKit          3D

 10 11  0  0  0  0  0  0  0  0999 V2000
    1.9812    1.5982   -0.2165 O   0  0  0  0  0  0  0  0  0  0  0  0
    1.4274    0.4991    0.0929 C   0  0  0  0  0  0  0  0  0  0  0  0
    2.0540   -0.7550    0.5149 C   0  0  0  0  0  0  0  0  0  0  0  0
    0.9342   -1.7318    0.6055 C   0  0  0  0  0  0  0  0  0  0  0  0
   -0.1243   -1.1145   -0.4844 C   0  0  1  0  0  0  0  0  0  0  0  0
   -1.4086   -1.4448    0.4589 C   0  0  0  0  0  0  0  0  0  0  0  0
   -2.1154   -0.2441    0.4115 O   0  0  0  0  0  0  0  0  0  0  0  0
   -1.2713    0.8231    0.3161 C   0  0  0  0  0  0  0  0  0  0  0  0
   -1.5085    2.0541    0.4106 O   0  0  0  0  0  0  0  0  0  0  0  0
    0.0313    0.3157    0.0736 N   0  0  0  0  0  0  0  0  0  0  0  0
  1  2  2  0
  2  3  1  0
  3  4  1  0
  5  4  1  1
  5  6  1  0
  6  7  1  0
  7  8  1  0
  8  9  2  0
  8 10  1  0
 10  2  1  0
 10  5  1  0
M  END
>  <zinc_id>  (8) 
ZINC000000005418

>  <smiles>  (8) 
O=C1CC[C@H]2COC(=O)N12

$$$$

     RDKit          3D

 22 24  0  0  0  0  0  0  0  0999 V2000
   -5.3245    2.2736    0.4994 C   0  0  0  0  0  0  0  0  0  0  0  0
   -3.9456    1.7182    0.6962 C   0  0  0  0  0  0  0  0  0  0  0  0
   -3.3402    1.9746    2.0685 C   0  0  0  0  0  0  0  0  0  0  0  0
   -3.7523    0.2783    0.2937 C   0  0  0  0  0  0  0  0  0  0  0  0
   -2.5264    0.6501   -0.3353 N   0  0  0  0  0  0  0  0  0  0  0  0
   -1.3146    0.0197   -0.7013 C   0  0  0  0  0  0  0  0  0  0  0  0
   -0.3852    0.5999   -1.2545 O   0  0  0  0  0  0  0  0  0  0  0  0
   -1.2427   -1.5353   -0.3342 C   0  0  2  0  0  0  0  0  0  0  0  0
   -0.9410   -1.2666    1.2791 C   0  0  0  0  0  0  0  0  0  0  0  0
   -0.2567   -2.6085    1.5400 C   0  0  0  0  0  0  0  0  0  0  0  0
    0.4813   -2.9040    0.3002 C   0  0  0  0  0  0  0  0  0  0  0  0
    1.2044   -3.8930    0.0722 O   0  0  0  0  0  0  0  0  0  0  0  0
    0.2434   -1.8613   -0.6346 N   0  0  0  0  0  0  0  0  0  0  0  0
    1.0646   -1.2885   -1.6288 C   0  0  0  0  0  0  0  0  0  0  0  0
    2.0438   -0.3498   -1.0210 C   0  0  0  0  0  0  0  0  0  0  0  0
    2.8075    0.4899   -1.8053 C   0  0  0  0  0  0  0  0  0  0  0  0
    3.7237    1.3600   -1.2863 C   0  0  0  0  0  0  0  0  0  0  0  0
    3.9416    1.4499    0.0800 C   0  0  0  0  0  0  0  0  0  0  0  0
    5.1095    2.5587    0.7451 Cl  0  0  0  0  0  0  0  0  0  0  0  0
    3.1813    0.6131    0.8694 C   0  0  0  0  0  0  0  0  0  0  0  0
    2.2556   -0.2667    0.3532 C   0  0  0  0  0  0  0  0  0  0  0  0
   -3.0277    1.9877   -0.4597 C   0  0  0  0  0  0  0  0  0  0  0  0
  1  2  1  0
  2  3  1  0
  2  4  1  0
  4  5  1  0
  5  6  1  0
  6  7  2  0
  8  6  1  6
  8  9  1  0
  9 10  1  0
 10 11  1  0
 11 12  2  0
 11 13  1  0
 13 14  1  0
 14 15  1  0
 15 16  2  0
 16 17  1  0
 17 18  2  0
 18 19  1  0
 18 20  1  0
 20 21  2  0
  5 22  1  0
 22  2  1  0
 13  8  1  0
 21 15  1  0
M  END
>  <zinc_id>  (9) 
ZINC000000006679

>  <smiles>  (9) 
CC1(C)CN(C(=O)[C@@H]2CCC(=O)N2Cc2ccc(Cl)cc2)C1

$$$$

     RDKit          3D

 23 25  0  0  0  0  0  0  0  0999 V2000
   -1.8404   -4.1654    1.7949 N   0  0  0  0  0  0  0  0  0  0  0  0
   -0.7684   -3.2987    1.4022 C   0  0  0  0  0  0  0  0  0  0  0  0
    0.4406   -3.8368    1.1711 N   0  0  0  0  0  0  0  0  0  0  0  0
    1.4959   -3.0859    0.7981 C   0  0  0  0  0  0  0  0  0  0  0  0
    1.3132   -1.7092    0.6504 C   0  0  0  0  0  0  0  0  0  0  0  0
    2.3493   -0.8906    0.2727 O   0  0  0  0  0  0  0  0  0  0  0  0
    2.4041   -0.0923   -0.8374 C   0  0  0  0  0  0  0  0  0  0  0  0
    1.3550   -0.0581   -1.7170 C   0  0  0  0  0  0  0  0  0  0  0  0
    1.4069    0.7591   -2.8552 C   0  0  0  0  0  0  0  0  0  0  0  0
    2.5299    1.5383   -3.0920 C   0  0  0  0  0  0  0  0  0  0  0  0
    2.6150    2.5628   -4.4997 Cl  0  0  0  0  0  0  0  0  0  0  0  0
    3.5751    1.5036   -2.2153 C   0  0  0  0  0  0  0  0  0  0  0  0
    3.5123    0.6838   -1.0813 C   0  0  0  0  0  0  0  0  0  0  0  0
    0.0714   -1.1774    0.8896 C   0  0  0  0  0  0  0  0  0  0  0  0
   -0.1063    0.2248    0.7334 N   0  0  0  0  0  0  0  0  0  0  0  0
   -1.4047    0.8043    0.9802 C   0  0  0  0  0  0  0  0  0  0  0  0
   -2.4614    0.2495    0.0780 C   0  0  0  0  0  0  0  0  0  0  0  0
   -3.7417    1.0305    0.2762 C   0  0  0  0  0  0  0  0  0  0  0  0
   -3.5477    2.4369   -0.2118 C   0  0  0  0  0  0  0  0  0  0  0  0
   -4.6102    3.2177    0.2350 O   0  0  0  0  0  0  0  0  0  0  0  0
   -2.2030    2.9963    0.0739 C   0  0  0  0  0  0  0  0  0  0  0  0
   -1.4125    2.2869    1.1196 C   0  0  0  0  0  0  0  0  0  0  0  0
   -0.9727   -1.9798    1.2678 N   0  0  0  0  0  0  0  0  0  0  0  0
  1  2  1  0
  2  3  2  0
  3  4  1  0
  4  5  2  0
  5  6  1  0
  6  7  1  0
  7  8  2  0
  8  9  1  0
  9 10  2  0
 10 11  1  0
 10 12  1  0
 12 13  2  0
  5 14  1  0
 14 15  1  0
 15 16  1  0
 16 17  1  0
 17 18  1  0
 18 19  1  0
 19 20  1  0
 19 21  1  0
 21 22  1  0
 14 23  2  0
 23  2  1  0
 13  7  1  0
 22 16  1  0
M  END
>  <zinc_id>  (10) 
ZINC000000008862

>  <smiles>  (10) 
Nc1ncc(Oc2ccc(Cl)cc2)c(NC2CCC(O)CC2)n1

$$$$

     RDKit          3D

 19 21  0  0  0  0  0  0  0  0999 V2000
    5.7769    2.1051    0.7573 C   0  0  0  0  0  0  0  0  0  0  0  0
    4.8002    1.8775   -0.4292 C   0  0  0  0  0  0  0  0  0  0  0  0
    4.1909    0.5589   -0.1972 C   0  0  0  0  0  0  0  0  0  0  0  0
    4.8013   -0.3092    0.4582 O   0  0  0  0  0  0  0  0  0  0  0  0
    2.8916    0.2057   -0.6635 N   0  0  0  0  0  0  0  0  0  0  0  0
    2.3936   -1.1031   -0.2722 C   0  0  0  0  0  0  0  0  0  0  0  0
    0.8069   -1.0914   -0.8543 C   0  0  1  0  0  0  0  0  0  0  0  0
    0.4580   -2.6368   -0.0425 C   0  0  0  0  0  0  0  0  0  0  0  0
    0.2056   -1.0708    0.7656 C   0  0  2  0  0  0  0  0  0  0  0  0
   -1.3826   -1.0503    0.5170 C   0  0  0  0  0  0  0  0  0  0  0  0
   -2.0646   -2.0993    1.0948 C   0  0  0  0  0  0  0  0  0  0  0  0
   -3.4434   -2.0715    1.1250 C   0  0  0  0  0  0  0  0  0  0  0  0
   -4.0463   -0.9684    0.5645 C   0  0  0  0  0  0  0  0  0  0  0  0
   -3.3272    0.0879   -0.0232 C   0  0  0  0  0  0  0  0  0  0  0  0
   -1.9665   -0.0029   -0.0155 C   0  0  0  0  0  0  0  0  0  0  0  0
   -1.3532    1.1557   -0.7014 C   0  0  0  0  0  0  0  0  0  0  0  0
   -2.5487    2.2191   -0.2690 C   0  0  1  0  0  0  0  0  0  0  0  0
   -2.4992    2.9221   -1.8135 C   0  0  0  0  0  0  0  0  0  0  0  0
   -3.6933    1.2716   -0.6642 O   0  0  0  0  0  0  0  0  0  0  0  0
  1  2  1  0
  2  3  1  0
  3  4  2  0
  3  5  1  0
  5  6  1  0
  7  6  1  1
  7  8  1  0
  8  9  1  0
  9 10  1  6
 10 11  2  0
 11 12  1  0
 12 13  2  0
 13 14  1  0
 14 15  2  0
 15 16  1  0
 16 17  1  0
 17 18  1  6
 17 19  1  0
  9  7  1  0
 15 10  1  0
 19 14  1  0
M  END
>  <zinc_id>  (11) 
ZINC000000009870

>  <smiles>  (11) 
CCC(=O)NC[C@H]1C[C@@H]1c1cccc2c1C[C@@H](C)O2

$$$$

     RDKit          3D

 15 16  0  0  0  0  0  0  0  0999 V2000
    3.6738   -1.7941   -1.1391 C   0  0  0  0  0  0  0  0  0  0  0  0
    2.3683   -1.4556   -0.5016 C   0  0  0  0  0  0  0  0  0  0  0  0
    2.4750   -0.1911    0.0944 O   0  0  0  0  0  0  0  0  0  0  0  0
    1.0286   -0.1136    0.6515 C   0  0  2  0  0  0  0  0  0  0  0  0
    0.3448   -0.2472   -0.8828 C   0  0  0  0  0  0  0  0  0  0  0  0
   -1.0850   -0.3806   -0.3990 C   0  0  0  0  0  0  0  0  0  0  0  0
   -1.1268   -1.4516    0.6719 C   0  0  0  0  0  0  0  0  0  0  0  0
   -2.6192   -1.6974    0.7985 C   0  0  0  0  0  0  0  0  0  0  0  0
   -3.1780   -1.4287   -0.5727 C   0  0  0  0  0  0  0  0  0  0  0  0
   -2.0560   -0.8488   -1.3998 C   0  0  0  0  0  0  0  0  0  0  0  0
   -1.5493    0.9015    0.2229 C   0  0  0  0  0  0  0  0  0  0  0  0
   -0.4366    1.8516    0.4712 C   0  0  0  0  0  0  0  0  0  0  0  0
   -0.7563    3.0745    0.5156 O   0  0  0  0  0  0  0  0  0  0  0  0
    0.9133    1.4720    0.6539 N   0  0  0  0  0  0  0  0  0  0  0  0
    2.0032    2.3091    0.8150 C   0  0  0  0  0  0  0  0  0  0  0  0
  1  2  1  0
  2  3  1  0
  4  3  1  6
  4  5  1  0
  5  6  1  0
  6  7  1  0
  7  8  1  0
  8  9  1  0
  9 10  1  0
  6 11  1  0
 11 12  1  0
 12 13  2  0
 12 14  1  0
 14 15  1  0
 14  4  1  0
 10  6  1  0
M  END
>  <zinc_id>  (12) 
ZINC000000014203

>  <smiles>  (12) 
CCO[C@@H]1CC2(CCCC2)CC(=O)N1C

$$$$

     RDKit          3D

 22 25  0  0  0  0  0  0  0  0999 V2000
   -0.0443   -3.6820   -0.5368 C   0  0  0  0  0  0  0  0  0  0  0  0
   -0.6857   -2.4473   -0.9970 N   0  0  0  0  0  0  0  0  0  0  0  0
   -0.5590   -1.9303   -2.3038 C   0  0  0  0  0  0  0  0  0  0  0  0
    0.2111   -0.4806   -2.2078 C   0  0  2  0  0  0  0  0  0  0  0  0
    1.3079   -1.0086   -1.0912 C   0  0  0  0  0  0  0  0  0  0  0  0
    2.0931    0.2747   -0.9198 C   0  0  0  0  0  0  0  0  0  0  0  0
    3.1654    0.1628    0.0190 N   0  0  0  0  0  0  0  0  0  0  0  0
    4.4481   -0.1854   -0.1342 C   0  0  0  0  0  0  0  0  0  0  0  0
    5.0513   -0.1283    1.1096 C   0  0  0  0  0  0  0  0  0  0  0  0
    4.1157    0.2548    1.9906 N   0  0  0  0  0  0  0  0  0  0  0  0
    2.9766    0.4327    1.3443 C   0  0  0  0  0  0  0  0  0  0  0  0
   -0.7243    0.2219   -1.1416 C   0  0  0  0  0  0  0  0  0  0  0  0
   -0.8259    1.5626   -1.1124 N   0  0  0  0  0  0  0  0  0  0  0  0
   -1.6902    1.9045   -0.1128 C   0  0  0  0  0  0  0  0  0  0  0  0
   -2.1551    3.1146    0.3551 C   0  0  0  0  0  0  0  0  0  0  0  0
   -3.0503    3.0395    1.4194 C   0  0  0  0  0  0  0  0  0  0  0  0
   -3.4494    1.8575    1.9721 C   0  0  0  0  0  0  0  0  0  0  0  0
   -2.9584    0.6784    1.4712 C   0  0  0  0  0  0  0  0  0  0  0  0
   -2.0796    0.6905    0.4305 C   0  0  0  0  0  0  0  0  0  0  0  0
   -1.4480   -0.3194   -0.2482 N   0  0  0  0  0  0  0  0  0  0  0  0
   -1.4942   -1.7161   -0.0940 C   0  0  0  0  0  0  0  0  0  0  0  0
   -2.2047   -2.2965    0.7878 O   0  0  0  0  0  0  0  0  0  0  0  0
  1  2  1  0
  2  3  1  0
  3  4  1  0
  4  5  1  1
  5  6  1  0
  6  7  1  0
  7  8  1  0
  8  9  2  0
  9 10  1  0
 10 11  2  0
  4 12  1  0
 12 13  2  0
 13 14  1  0
 14 15  2  0
 15 16  1  0
 16 17  2  0
 17 18  1  0
 18 19  2  0
 19 20  1  0
 20 21  1  0
 21 22  2  0
 21  2  1  0
 11  7  1  0
 20 12  1  0
 19 14  1  0
M  END
>  <zinc_id>  (13) 
ZINC000000015143

>  <smiles>  (13) 
CN1C[C@H](CCn2ccnc2)c2nc3ccccc3n2C1=O

$$$$

     RDKit          3D

 16 18  0  0  0  0  0  0  0  0999 V2000
   -4.1163    0.9843   -0.3758 C   0  0  0  0  0  0  0  0  0  0  0  0
   -3.4631    0.1076    0.6163 C   0  0  0  0  0  0  0  0  0  0  0  0
   -3.8968    0.0231    1.7821 O   0  0  0  0  0  0  0  0  0  0  0  0
   -2.3314   -0.6487    0.2477 N   0  0  0  0  0  0  0  0  0  0  0  0
   -1.6660   -1.5181    1.1936 C   0  0  0  0  0  0  0  0  0  0  0  0
   -0.2874   -0.9901    1.4103 C   0  0  0  0  0  0  0  0  0  0  0  0
    0.3040   -0.4214    0.1778 C   0  0  0  0  0  0  0  0  0  0  0  0
   -0.3468   -0.2180   -0.9992 C   0  0  0  0  0  0  0  0  0  0  0  0
    0.5374    0.3205   -1.8896 N   0  0  0  0  0  0  0  0  0  0  0  0
    1.7428    0.4644   -1.3002 C   0  0  0  0  0  0  0  0  0  0  0  0
    2.9726    0.9548   -1.7485 C   0  0  0  0  0  0  0  0  0  0  0  0
    4.0399    0.9672   -0.8753 C   0  0  0  0  0  0  0  0  0  0  0  0
    3.9511    0.5166    0.4255 C   0  0  0  0  0  0  0  0  0  0  0  0
    2.7241    0.0396    0.8355 C   0  0  0  0  0  0  0  0  0  0  0  0
    1.6206    0.0064   -0.0052 C   0  0  0  0  0  0  0  0  0  0  0  0
   -1.7846   -0.5882   -1.0962 C   0  0  0  0  0  0  0  0  0  0  0  0
  1  2  1  0
  2  3  2  0
  2  4  1  0
  4  5  1  0
  5  6  1  0
  6  7  1  0
  7  8  2  0
  8  9  1  0
  9 10  1  0
 10 11  2  0
 11 12  1  0
 12 13  2  0
 13 14  1  0
 14 15  2  0
  8 16  1  0
 16  4  1  0
 15  7  1  0
 15 10  1  0
M  END
>  <zinc_id>  (14) 
ZINC000000015799

>  <smiles>  (14) 
CC(=O)N1CCc2c([nH]c3ccccc23)C1

$$$$

     RDKit          3D

 22 24  0  0  0  0  0  0  0  0999 V2000
    5.2600    0.0623    1.5244 C   0  0  0  0  0  0  0  0  0  0  0  0
    4.0045   -0.4451    0.9845 C   0  0  0  0  0  0  0  0  0  0  0  0
    3.5983   -1.6898    1.2535 N   0  0  0  0  0  0  0  0  0  0  0  0
    2.4379   -2.2292    0.7994 C   0  0  0  0  0  0  0  0  0  0  0  0
    2.0626   -3.3775    1.0517 O   0  0  0  0  0  0  0  0  0  0  0  0
    1.6652   -1.4199    0.0384 C   0  0  0  0  0  0  0  0  0  0  0  0
    0.3572   -1.8523   -0.3948 N   0  0  0  0  0  0  0  0  0  0  0  0
   -0.7380   -1.2377   -0.4649 C   0  0  0  0  0  0  0  0  0  0  0  0
   -1.9208   -0.5602   -0.5489 C   0  0  0  0  0  0  0  0  0  0  0  0
   -2.8823   -0.3448   -1.4259 N   0  0  0  0  0  0  0  0  0  0  0  0
   -3.8452    0.4467   -0.8676 C   0  0  0  0  0  0  0  0  0  0  0  0
   -5.0071    0.9544   -1.3262 C   0  0  0  0  0  0  0  0  0  0  0  0
   -5.7939    1.7524   -0.5381 C   0  0  0  0  0  0  0  0  0  0  0  0
   -5.3644    2.0145    0.7194 C   0  0  0  0  0  0  0  0  0  0  0  0
   -4.1988    1.5341    1.2556 C   0  0  0  0  0  0  0  0  0  0  0  0
   -3.4256    0.7306    0.4278 C   0  0  0  0  0  0  0  0  0  0  0  0
   -2.3050    0.1261    0.5830 O   0  0  0  0  0  0  0  0  0  0  0  0
    2.0512   -0.1335   -0.2746 C   0  0  0  0  0  0  0  0  0  0  0  0
    3.1985    0.3582    0.1815 C   0  0  0  0  0  0  0  0  0  0  0  0
    3.6743    1.8042   -0.1354 C   0  0  1  0  0  0  0  0  0  0  0  0
    4.6293    1.3359   -1.4625 C   0  0  0  0  0  0  0  0  0  0  0  0
    2.5422    2.1705   -1.1228 O   0  0  0  0  0  0  0  0  0  0  0  0
  1  2  1  0
  2  3  1  0
  3  4  1  0
  4  5  2  0
  4  6  1  0
  6  7  1  0
  7  8  1  0
  8  9  1  0
  9 10  2  0
 10 11  1  0
 11 12  2  0
 12 13  1  0
 13 14  2  0
 14 15  1  0
 15 16  2  0
 16 17  1  0
  6 18  2  0
 18 19  1  0
 19 20  1  0
 20 21  1  6
 20 22  1  0
 19  2  2  0
 17  9  1  0
 16 11  1  0
M  END
>  <zinc_id>  (15) 
ZINC000000016059

>  <smiles>  (15) 
Cc1[nH]c(=O)c(NCc2nc3ccccc3o2)cc1[C@@H](C)O

$$$$

     RDKit          3D

 23 26  0  0  0  0  0  0  0  0999 V2000
    7.2439    0.2962    0.1597 C   0  0  0  0  0  0  0  0  0  0  0  0
    6.2854   -0.7154    0.3317 O   0  0  0  0  0  0  0  0  0  0  0  0
    4.9075   -0.4439    0.3459 C   0  0  0  0  0  0  0  0  0  0  0  0
    4.0756   -1.5277    0.5229 C   0  0  0  0  0  0  0  0  0  0  0  0
    2.7264   -1.3351    0.5467 C   0  0  0  0  0  0  0  0  0  0  0  0
    2.2090   -0.0706    0.3950 C   0  0  0  0  0  0  0  0  0  0  0  0
    3.0646    0.9958    0.2194 C   0  0  0  0  0  0  0  0  0  0  0  0
    4.4337    0.8591    0.1874 C   0  0  0  0  0  0  0  0  0  0  0  0
    2.2629    2.0668    0.1043 N   0  0  0  0  0  0  0  0  0  0  0  0
    0.9754    1.6684    0.2055 C   0  0  0  0  0  0  0  0  0  0  0  0
    0.9380    0.3372    0.3867 N   0  0  0  0  0  0  0  0  0  0  0  0
   -0.2841   -0.4004    0.5313 C   0  0  0  0  0  0  0  0  0  0  0  0
   -0.3103   -1.5573    1.2985 C   0  0  0  0  0  0  0  0  0  0  0  0
   -1.4660   -2.2561    1.4357 C   0  0  0  0  0  0  0  0  0  0  0  0
   -2.6040   -1.8095    0.8109 C   0  0  0  0  0  0  0  0  0  0  0  0
   -2.6264   -0.6530    0.0300 C   0  0  0  0  0  0  0  0  0  0  0  0
   -3.8578   -0.2225   -0.6114 C   0  0  0  0  0  0  0  0  0  0  0  0
   -4.7989   -1.1329   -1.0403 C   0  0  0  0  0  0  0  0  0  0  0  0
   -5.9820   -0.7930   -1.6526 C   0  0  0  0  0  0  0  0  0  0  0  0
   -6.2575    0.5355   -1.8565 C   0  0  0  0  0  0  0  0  0  0  0  0
   -5.3501    1.4714   -1.4458 C   0  0  0  0  0  0  0  0  0  0  0  0
   -4.1562    1.1060   -0.8268 C   0  0  0  0  0  0  0  0  0  0  0  0
   -1.4292    0.0203   -0.0782 C   0  0  0  0  0  0  0  0  0  0  0  0
  1  2  1  0
  2  3  1  0
  3  4  2  0
  4  5  1  0
  5  6  2  0
  6  7  1  0
  7  8  2  0
  7  9  1  0
  9 10  2  0
 10 11  1  0
 11 12  1  0
 12 13  2  0
 13 14  1  0
 14 15  2  0
 15 16  1  0
 16 17  1  0
 17 18  2  0
 18 19  1  0
 19 20  2  0
 20 21  1  0
 21 22  2  0
 16 23  2  0
  8  3  1  0
 23 12  1  0
 11  6  1  0
 22 17  1  0
M  END
>  <zinc_id>  (16) 
ZINC000000016881

>  <smiles>  (16) 
COc1ccc2c(c1)ncn2-c1cccc(-c2ccccc2)c1

$$$$

     RDKit          3D

 20 22  0  0  0  0  0  0  0  0999 V2000
    3.9119    0.1510    2.2773 N   0  0  0  0  0  0  0  0  0  0  0  0
    3.1948    0.1047    1.0523 C   0  0  0  0  0  0  0  0  0  0  0  0
    1.9668    0.7243    0.9308 C   0  0  0  0  0  0  0  0  0  0  0  0
    1.1841    1.4480    1.7845 N   0  0  0  0  0  0  0  0  0  0  0  0
    0.0646    1.8256    1.1408 C   0  0  0  0  0  0  0  0  0  0  0  0
    0.0879    1.3683   -0.1194 N   0  0  0  0  0  0  0  0  0  0  0  0
   -0.9293    1.5445   -1.1699 C   0  0  0  0  0  0  0  0  0  0  0  0
   -1.8613    0.4101   -1.0363 C   0  0  0  0  0  0  0  0  0  0  0  0
   -1.7635   -0.6434   -1.9081 C   0  0  0  0  0  0  0  0  0  0  0  0
   -2.6155   -1.7475   -1.8218 C   0  0  0  0  0  0  0  0  0  0  0  0
   -3.5818   -1.7784   -0.8325 C   0  0  0  0  0  0  0  0  0  0  0  0
   -3.6886   -0.7314    0.0435 C   0  0  0  0  0  0  0  0  0  0  0  0
   -4.9118   -0.7898    1.2762 Cl  0  0  0  0  0  0  0  0  0  0  0  0
   -2.8487    0.3445   -0.0503 C   0  0  0  0  0  0  0  0  0  0  0  0
   -2.9462    1.7120    1.0414 Cl  0  0  0  0  0  0  0  0  0  0  0  0
    1.2529    0.6936   -0.2486 C   0  0  0  0  0  0  0  0  0  0  0  0
    1.8088    0.0266   -1.2924 N   0  0  0  0  0  0  0  0  0  0  0  0
    3.0040   -0.5662   -1.1455 C   0  0  0  0  0  0  0  0  0  0  0  0
    3.7152   -0.5462    0.0010 N   0  0  0  0  0  4  0  0  0  0  0  0
    4.9556   -1.1862    0.0770 O   0  0  0  0  0  1  0  0  0  0  0  0
  1  2  1  0
  2  3  2  0
  3  4  1  0
  4  5  2  0
  5  6  1  0
  6  7  1  0
  7  8  1  0
  8  9  2  0
  9 10  1  0
 10 11  2  0
 11 12  1  0
 12 13  1  0
 12 14  2  0
 14 15  1  0
  6 16  1  0
 16 17  2  0
 17 18  1  0
 18 19  2  0
 19 20  1  0
 19  2  1  0
 16  3  1  0
 14  8  1  0
M  CHG  2  19   1  20  -1
M  END
>  <zinc_id>  (17) 
ZINC000000017252

>  <smiles>  (17) 
Nc1c2ncn(Cc3cccc(Cl)c3Cl)c2nc[n+]1[O-]

$$$$

     RDKit          3D

 30 33  0  0  0  0  0  0  0  0999 V2000
    8.8065   -0.6423    1.2230 C   0  0  0  0  0  0  0  0  0  0  0  0
    7.3895   -0.5032    0.7827 C   0  0  0  0  0  0  0  0  0  0  0  0
    6.4146   -1.4205    1.0782 C   0  0  0  0  0  0  0  0  0  0  0  0
    5.1196   -1.2767    0.6660 C   0  0  0  0  0  0  0  0  0  0  0  0
    4.7629   -0.1631   -0.0820 C   0  0  0  0  0  0  0  0  0  0  0  0
    3.4393    0.0256   -0.5279 N   0  0  0  0  0  0  0  0  0  0  0  0
    2.7093    1.1791   -0.1258 C   0  0  0  0  0  0  0  0  0  0  0  0
    1.4326    0.7312    0.5427 C   0  0  0  0  0  0  0  0  0  0  0  0
    0.7934   -0.3648   -0.1665 N   0  0  0  0  0  0  0  0  0  0  0  0
   -0.5972   -0.4391   -0.3050 C   0  0  0  0  0  0  0  0  0  0  0  0
   -1.1439   -1.3266   -0.8812 O   0  0  0  0  0  0  0  0  0  0  0  0
   -1.3291    0.7757    0.3843 C   0  0  1  0  0  0  0  0  0  0  0  0
   -1.1607    1.8449   -0.8490 C   0  0  0  0  0  0  0  0  0  0  0  0
   -2.0380    1.3472   -1.8688 C   0  0  0  0  0  0  0  0  0  0  0  0
   -3.0391    0.4676   -1.2833 C   0  0  0  0  0  0  0  0  0  0  0  0
   -2.8113    0.4110    0.0630 N   0  0  0  0  0  0  0  0  0  0  0  0
   -3.6926    0.0857    1.1199 C   0  0  0  0  0  0  0  0  0  0  0  0
   -3.4069    0.0554    2.3395 O   0  0  0  0  0  0  0  0  0  0  0  0
   -5.0739   -0.2529    0.8052 C   0  0  0  0  0  0  0  0  0  0  0  0
   -5.4045   -1.5670    0.5595 C   0  0  0  0  0  0  0  0  0  0  0  0
   -6.6940   -1.9219    0.2604 C   0  0  0  0  0  0  0  0  0  0  0  0
   -7.7128   -0.9939    0.1911 C   0  0  0  0  0  0  0  0  0  0  0  0
   -7.3611    0.3211    0.4410 C   0  0  0  0  0  0  0  0  0  0  0  0
   -6.0760    0.6911    0.7414 C   0  0  0  0  0  0  0  0  0  0  0  0
   -5.7986    1.9766    0.9728 F   0  0  0  0  0  0  0  0  0  0  0  0
    1.5838   -1.4371   -0.7652 C   0  0  0  0  0  0  0  0  0  0  0  0
    2.8516   -0.9511   -1.3806 C   0  0  0  0  0  0  0  0  0  0  0  0
    5.7310    0.7956   -0.4036 C   0  0  0  0  0  0  0  0  0  0  0  0
    5.2918    1.9640   -1.2048 C   0  0  0  0  0  0  0  0  0  0  0  0
    7.0140    0.5885    0.0429 C   0  0  0  0  0  0  0  0  0  0  0  0
  1  2  1  0
  2  3  2  0
  3  4  1  0
  4  5  2  0
  5  6  1  0
  6  7  1  0
  7  8  1  0
  8  9  1  0
  9 10  1  0
 10 11  2  0
 12 10  1  6
 12 13  1  0
 13 14  1  0
 14 15  1  0
 15 16  1  0
 16 17  1  0
 17 18  2  0
 17 19  1  0
 19 20  2  0
 20 21  1  0
 21 22  2  0
 22 23  1  0
 23 24  2  0
 24 25  1  0
  9 26  1  0
 26 27  1  0
  5 28  1  0
 28 29  1  0
 28 30  2  0
 30  2  1  0
 27  6  1  0
 16 12  1  0
 24 19  1  0
M  END
>  <zinc_id>  (18) 
ZINC000000017764

>  <smiles>  (18) 
Cc1ccc(N2CCN(C(=O)[C@H]3CCCN3C(=O)c3ccccc3F)CC2)c(C)c1

$$$$

     RDKit          3D

 23 26  0  0  0  0  0  0  0  0999 V2000
    2.3207    2.4097    2.5337 N   0  0  0  0  0  0  0  0  0  0  0  0
    1.8796    1.5594    1.4840 C   0  0  0  0  0  0  0  0  0  0  0  0
    2.7463    1.2042    0.5097 N   0  0  0  0  0  0  0  0  0  0  0  0
    2.3357    0.4028   -0.4823 C   0  0  0  0  0  0  0  0  0  0  0  0
    3.1666   -0.0044   -1.5163 O   0  0  0  0  0  0  0  0  0  0  0  0
    4.4997    0.3590   -1.6512 C   0  0  0  0  0  0  0  0  0  0  0  0
    5.3905   -0.0387   -0.5346 C   0  0  0  0  0  0  0  0  0  0  0  0
    5.6021   -1.4398   -0.1252 C   0  0  0  0  0  0  0  0  0  0  0  0
    6.7259   -0.6381   -0.7490 C   0  0  0  0  0  0  0  0  0  0  0  0
    1.0196   -0.0459   -0.4838 C   0  0  0  0  0  0  0  0  0  0  0  0
    0.3306   -0.8358   -1.3166 N   0  0  0  0  0  0  0  0  0  0  0  0
   -0.9294   -0.9404   -0.8309 C   0  0  0  0  0  0  0  0  0  0  0  0
   -1.0810   -0.2559    0.2724 N   0  0  0  0  0  0  0  0  0  0  0  0
   -2.2508   -0.0416    1.1901 C   0  0  2  0  0  0  0  0  0  0  0  0
   -3.0860   -1.3730    0.9849 C   0  0  0  0  0  0  0  0  0  0  0  0
   -3.9887   -1.0365   -0.3318 C   0  0  1  0  0  0  0  0  0  0  0  0
   -5.0586   -2.0564    0.0244 O   0  0  0  0  0  0  0  0  0  0  0  0
   -4.8045    0.1936    0.5164 C   0  0  2  0  0  0  0  0  0  0  0  0
   -5.7738    0.5782   -0.6489 C   0  0  0  0  0  0  0  0  0  0  0  0
   -6.5007   -0.5938   -0.9264 O   0  0  0  0  0  0  0  0  0  0  0  0
   -3.2601    1.1595    0.0871 S   0  0  0  0  0  0  0  0  0  0  0  0
    0.1106    0.3091    0.5118 C   0  0  0  0  0  0  0  0  0  0  0  0
    0.6059    1.1250    1.4823 N   0  0  0  0  0  0  0  0  0  0  0  0
  1  2  1  0
  2  3  2  0
  3  4  1  0
  4  5  1  0
  5  6  1  0
  6  7  1  0
  7  8  1  0
  8  9  1  0
  4 10  2  0
 10 11  1  0
 11 12  2  0
 12 13  1  0
 14 13  1  6
 14 15  1  0
 15 16  1  0
 16 17  1  1
 16 18  1  0
 18 19  1  6
 19 20  1  0
 18 21  1  0
 13 22  1  0
 22 23  2  0
 23  2  1  0
  9  7  1  0
 22 10  1  0
 21 14  1  0
M  END
>  <zinc_id>  (19) 
ZINC000000017984

>  <smiles>  (19) 
Nc1nc(OCC2CC2)c2ncn([C@@H]3C[C@@H](O)[C@H](CO)S3)c2n1

$$$$

     RDKit          3D

 25 26  0  0  0  0  0  0  0  0999 V2000
   -3.5983   -4.2011    0.4503 C   0  0  0  0  0  0  0  0  0  0  0  0
   -3.4204   -2.9113    1.0168 O   0  0  0  0  0  0  0  0  0  0  0  0
   -2.5402   -2.0458    0.2867 C   0  0  0  0  0  0  0  0  0  0  0  0
   -2.0095   -2.4809   -0.7868 O   0  0  0  0  0  0  0  0  0  0  0  0
   -2.2921   -0.6630    0.8358 C   0  0  1  0  0  0  0  0  0  0  0  0
   -0.9385   -0.3221    0.4693 O   0  0  0  0  0  0  0  0  0  0  0  0
   -0.4808    0.5973   -0.2727 C   0  0  0  0  0  0  0  0  0  0  0  0
   -1.1884    1.3636   -1.0154 O   0  0  0  0  0  0  0  0  0  0  0  0
    1.0145    0.9654   -0.3912 C   0  0  0  0  0  0  0  0  0  0  0  0
    1.6471    0.7340    0.9937 C   0  0  0  0  0  0  0  0  0  0  0  0
    1.9851   -0.7587    1.1182 C   0  0  0  0  0  0  0  0  0  0  0  0
    3.1807   -0.9485    0.4080 N   0  0  0  0  0  0  0  0  0  0  0  0
    3.3764   -0.7326   -0.9168 C   0  0  0  0  0  0  0  0  0  0  0  0
    3.9519    0.5946   -1.3060 C   0  0  0  0  0  0  0  0  0  0  0  0
    5.3501    0.9221   -0.2895 S   0  0  0  0  0  0  0  0  0  0  0  0
    6.4449   -0.0497   -0.6398 O   0  0  0  0  0  0  0  0  0  0  0  0
    5.8239    2.3526   -0.3999 O   0  0  0  0  0  0  0  0  0  0  0  0
    4.9000    0.4854    1.3874 C   0  0  0  0  0  0  0  0  0  0  0  0
    4.3732   -0.9726    1.2422 C   0  0  0  0  0  0  0  0  0  0  0  0
   -3.3222    0.3302    0.4513 C   0  0  0  0  0  0  0  0  0  0  0  0
   -4.5379    0.0668   -0.0689 C   0  0  0  0  0  0  0  0  0  0  0  0
   -5.4999    1.0587   -0.4747 C   0  0  0  0  0  0  0  0  0  0  0  0
   -5.1883    2.3122   -0.3345 N   0  0  0  0  0  0  0  0  0  0  0  0
   -3.9683    2.6269    0.1855 C   0  0  0  0  0  0  0  0  0  0  0  0
   -3.0630    1.6761    0.5665 C   0  0  0  0  0  0  0  0  0  0  0  0
  1  2  1  0
  2  3  1  0
  3  4  2  0
  3  5  1  0
  5  6  1  6
  6  7  1  0
  7  8  2  0
  7  9  1  0
  9 10  1  0
 10 11  1  0
 11 12  1  0
 12 13  1  0
 13 14  1  0
 14 15  1  0
 15 16  2  0
 15 17  2  0
 15 18  1  0
 18 19  1  0
  5 20  1  0
 20 21  2  0
 21 22  1  0
 22 23  2  0
 23 24  1  0
 24 25  2  0
 19 12  1  0
 25 20  1  0
M  END
>  <zinc_id>  (20) 
ZINC000000019631

>  <smiles>  (20) 
COC(=O)[C@@H](OC(=O)CCCN1CCS(=O)(=O)CC1)c1ccncc1

$$$$

     RDKit          3D

 19 21  0  0  0  0  0  0  0  0999 V2000
    5.7996    0.2298    0.4007 C   0  0  0  0  0  0  0  0  0  0  0  0
    4.5191    0.7862    0.2945 O   0  0  0  0  0  0  0  0  0  0  0  0
    3.3880    0.0125    0.3546 C   0  0  0  0  0  0  0  0  0  0  0  0
    3.4454   -1.3484    0.5219 C   0  0  0  0  0  0  0  0  0  0  0  0
    2.3373   -2.1550    0.5866 C   0  0  0  0  0  0  0  0  0  0  0  0
    1.0971   -1.5752    0.4788 C   0  0  0  0  0  0  0  0  0  0  0  0
    0.9887   -0.2644    0.3161 C   0  0  0  0  0  0  0  0  0  0  0  0
   -0.3839    0.5056    0.1834 C   0  0  1  0  0  0  0  0  0  0  0  0
   -0.0540    1.1397   -1.2936 C   0  0  0  0  0  0  0  0  0  0  0  0
   -0.9526    2.3471   -1.3294 C   0  0  0  0  0  0  0  0  0  0  0  0
   -1.9759    2.4089   -0.2771 C   0  0  0  0  0  0  0  0  0  0  0  0
   -2.7895    1.1616   -0.0841 C   0  0  0  0  0  0  0  0  0  0  0  0
   -2.3826    0.1715   -1.3188 C   0  0  2  0  0  0  0  0  0  0  0  0
   -3.6096   -0.8914   -1.0253 C   0  0  0  0  0  0  0  0  0  0  0  0
   -3.5179   -1.0748    0.3539 N   0  0  0  0  0  0  0  0  0  0  0  0
   -4.5110   -0.2444    1.0269 C   0  0  0  0  0  0  0  0  0  0  0  0
   -2.2164   -0.9437    0.8413 C   0  0  0  0  0  0  0  0  0  0  0  0
   -1.2903   -0.7906   -0.4491 C   0  0  2  0  0  0  0  0  0  0  0  0
    2.1084    0.5251    0.2538 C   0  0  0  0  0  0  0  0  0  0  0  0
  1  2  1  0
  2  3  1  0
  3  4  2  0
  4  5  1  0
  5  6  2  0
  6  7  1  0
  8  7  1  6
  8  9  1  0
  9 10  1  0
 10 11  1  0
 11 12  1  0
 13 12  1  1
 13 14  1  0
 14 15  1  0
 15 16  1  0
 15 17  1  0
 18 17  1  1
  7 19  2  0
 19  3  1  0
 18  8  1  0
 18 13  1  0
M  END
>  <zinc_id>  (21) 
ZINC000000021728

>  <smiles>  (21) 
COc1cccc([C@H]2CCCC[C@@H]3CN(C)C[C@@H]32)c1

$$$$

     RDKit          3D

 32 36  0  0  0  0  0  0  0  0999 V2000
    2.7538    0.6637   -2.9360 C   0  0  0  0  0  0  0  0  0  0  0  0
    2.8838    1.2777   -1.5800 C   0  0  0  0  0  0  0  0  0  0  0  0
    2.1345    0.4204   -0.6132 C   0  0  0  0  0  0  0  0  0  0  0  0
    0.7590    0.3836   -0.4780 C   0  0  0  0  0  0  0  0  0  0  0  0
   -0.2459    1.1370   -1.2104 C   0  0  0  0  0  0  0  0  0  0  0  0
    0.1251    1.9468   -2.0939 O   0  0  0  0  0  0  0  0  0  0  0  0
   -1.6059    0.9354   -0.9054 N   0  0  0  0  0  0  0  0  0  0  0  0
   -2.5998    1.6831   -1.6278 C   0  0  0  0  0  0  0  0  0  0  0  0
   -3.9327    1.0334   -1.7417 C   0  0  0  0  0  0  0  0  0  0  0  0
   -4.1345   -0.0870   -0.8639 N   0  0  0  0  0  0  0  0  0  0  0  0
   -5.4241   -0.3491   -0.3599 C   0  0  0  0  0  0  0  0  0  0  0  0
   -6.0538   -1.5246   -0.6673 C   0  0  0  0  0  0  0  0  0  0  0  0
   -7.3276   -1.7973   -0.1845 C   0  0  0  0  0  0  0  0  0  0  0  0
   -7.9666   -0.8934    0.6040 C   0  0  0  0  0  0  0  0  0  0  0  0
   -7.3720    0.3011    0.9391 C   0  0  0  0  0  0  0  0  0  0  0  0
   -8.0861    1.2674    1.7984 C   0  0  0  0  0  0  0  0  0  0  0  0
   -6.1037    0.5482    0.4454 C   0  0  0  0  0  0  0  0  0  0  0  0
   -5.4123    1.8239    0.7760 C   0  0  0  0  0  0  0  0  0  0  0  0
   -3.0362   -0.9366   -0.4930 C   0  0  0  0  0  0  0  0  0  0  0  0
   -1.9773   -0.0089    0.1144 C   0  0  0  0  0  0  0  0  0  0  0  0
    0.5458   -0.5266    0.5044 N   0  0  0  0  0  0  0  0  0  0  0  0
    1.7289   -0.9919    0.9167 N   0  0  0  0  0  0  0  0  0  0  0  0
    2.7153   -0.4305    0.2513 N   0  0  0  0  0  0  0  0  0  0  0  0
    4.1208   -0.6505    0.3875 C   0  0  0  0  0  0  0  0  0  0  0  0
    4.6417   -1.5263    1.3188 C   0  0  0  0  0  0  0  0  0  0  0  0
    5.9987   -1.7371    1.4471 C   0  0  0  0  0  0  0  0  0  0  0  0
    6.9053   -1.0783    0.6456 C   0  0  0  0  0  0  0  0  0  0  0  0
    6.4016   -0.2003   -0.2893 C   0  0  0  0  0  0  0  0  0  0  0  0
    5.0404    0.0022   -0.4081 C   0  0  0  0  0  0  0  0  0  0  0  0
    7.5180    0.3162   -0.9494 O   0  0  0  0  0  0  0  0  0  0  0  0
    8.6953    0.0927   -0.1600 C   0  0  0  0  0  0  0  0  0  0  0  0
    8.3108   -1.0944    0.5546 O   0  0  0  0  0  0  0  0  0  0  0  0
  1  2  1  0
  2  3  1  0
  3  4  2  0
  4  5  1  0
  5  6  2  0
  5  7  1  0
  7  8  1  0
  8  9  1  0
  9 10  1  0
 10 11  1  0
 11 12  2  0
 12 13  1  0
 13 14  2  0
 14 15  1  0
 15 16  1  0
 15 17  2  0
 17 18  1  0
 10 19  1  0
 19 20  1  0
  4 21  1  0
 21 22  2  0
 22 23  1  0
 23 24  1  0
 24 25  2  0
 25 26  1  0
 26 27  2  0
 27 28  1  0
 28 29  2  0
 28 30  1  0
 30 31  1  0
 31 32  1  0
 23  3  1  0
 29 24  1  0
 20  7  1  0
 32 27  1  0
 17 11  1  0
M  END
>  <zinc_id>  (22) 
ZINC000000022778

>  <smiles>  (22) 
CCc1c(C(=O)N2CCN(c3cccc(C)c3C)CC2)nnn1-c1ccc2c(c1)OCO2

$$$$

     RDKit          3D

 17 19  0  0  0  0  0  0  0  0999 V2000
    2.6049   -2.1780    0.5750 C   0  0  0  0  0  0  0  0  0  0  0  0
    1.6998   -1.0620    0.3784 N   0  0  0  0  0  0  0  0  0  0  0  0
    2.1153    0.1926    0.1287 C   0  0  0  0  0  0  0  0  0  0  0  0
    3.4745    0.6974    0.0046 C   0  0  0  0  0  0  0  0  0  0  0  0
    3.7056    1.9063   -0.2326 O   0  0  0  0  0  0  0  0  0  0  0  0
    4.5538   -0.1576    0.1476 O   0  0  0  0  0  0  0  0  0  0  0  0
    0.9713    0.9588    0.0041 C   0  0  0  0  0  0  0  0  0  0  0  0
   -0.1257    0.1655    0.1786 C   0  0  0  0  0  0  0  0  0  0  0  0
   -1.4620    0.4545    0.1495 C   0  0  0  0  0  0  0  0  0  0  0  0
   -1.8794    1.7415   -0.0897 C   0  0  0  0  0  0  0  0  0  0  0  0
   -3.2337    2.0637   -0.1248 C   0  0  0  0  0  0  0  0  0  0  0  0
   -4.1251    1.0419    0.0895 C   0  0  0  0  0  0  0  0  0  0  0  0
   -3.7505   -0.2569    0.3319 C   0  0  0  0  0  0  0  0  0  0  0  0
   -2.3801   -0.5306    0.3573 C   0  0  0  0  0  0  0  0  0  0  0  0
   -1.9429   -1.8229    0.5972 C   0  0  0  0  0  0  0  0  0  0  0  0
   -0.5766   -2.1071    0.6247 C   0  0  0  0  0  0  0  0  0  0  0  0
    0.3510   -1.1071    0.4139 C   0  0  0  0  0  0  0  0  0  0  0  0
  1  2  1  0
  2  3  1  0
  3  4  1  0
  4  5  2  0
  4  6  1  0
  3  7  2  0
  7  8  1  0
  8  9  2  0
  9 10  1  0
 10 11  2  0
 11 12  1  0
 12 13  2  0
 13 14  1  0
 14 15  2  0
 15 16  1  0
 16 17  2  0
 17  2  1  0
 17  8  1  0
 14  9  1  0
M  END
>  <zinc_id>  (23) 
ZINC000000023583

>  <smiles>  (23) 
Cn1c(C(=O)O)cc2c3ccccc3ccc21

$$$$

     RDKit          3D

 23 26  0  0  0  0  0  0  0  0999 V2000
   -1.5229    2.4729   -1.5277 C   0  0  0  0  0  0  0  0  0  0  0  0
   -0.9192    2.6987   -0.2363 N   0  0  0  0  0  0  0  0  0  0  0  0
    0.4699    3.0207   -0.5513 C   0  0  0  0  0  0  0  0  0  0  0  0
    1.5058    2.5580    0.3830 C   0  0  0  0  0  0  0  0  0  0  0  0
    1.8450    1.1163    0.1788 C   0  0  0  0  0  0  0  0  0  0  0  0
    3.1308    0.7909    0.5871 C   0  0  0  0  0  0  0  0  0  0  0  0
    3.4985   -0.5405    0.4405 C   0  0  0  0  0  0  0  0  0  0  0  0
    5.1201   -1.0475    0.9349 Cl  0  0  0  0  0  0  0  0  0  0  0  0
    2.6620   -1.5084   -0.0761 C   0  0  0  0  0  0  0  0  0  0  0  0
    3.1123   -2.8268   -0.1886 O   0  0  0  0  0  0  0  0  0  0  0  0
    1.3765   -1.1452   -0.4769 C   0  0  0  0  0  0  0  0  0  0  0  0
    1.0285    0.1465   -0.3320 C   0  0  0  0  0  0  0  0  0  0  0  0
   -0.4165    0.4587   -0.8484 C   0  0  1  0  0  0  0  0  0  0  0  0
   -1.1206   -0.8397   -0.5089 C   0  0  0  0  0  0  0  0  0  0  0  0
   -0.7716   -2.1181   -0.8192 C   0  0  0  0  0  0  0  0  0  0  0  0
   -1.6030   -3.2013   -0.4601 C   0  0  0  0  0  0  0  0  0  0  0  0
   -2.7623   -2.8937    0.2081 C   0  0  0  0  0  0  0  0  0  0  0  0
   -3.0704   -1.5644    0.5017 C   0  0  0  0  0  0  0  0  0  0  0  0
   -2.2419   -0.5199    0.1417 C   0  0  0  0  0  0  0  0  0  0  0  0
   -2.4181    0.8817    0.4265 C   0  0  0  0  0  0  0  0  0  0  0  0
   -3.2824    1.7532   -0.2539 C   0  0  0  0  0  0  0  0  0  0  0  0
   -2.7609    0.9607    1.9377 C   0  0  0  0  0  0  0  0  0  0  0  0
   -0.8596    1.3473    0.5393 C   0  0  2  0  0  0  0  0  0  0  0  0
  1  2  1  0
  2  3  1  0
  3  4  1  0
  4  5  1  0
  5  6  2  0
  6  7  1  0
  7  8  1  0
  7  9  2  0
  9 10  1  0
  9 11  1  0
 11 12  2  0
 13 12  1  1
 13 14  1  0
 14 15  2  0
 15 16  1  0
 16 17  2  0
 17 18  1  0
 18 19  2  0
 19 20  1  0
 20 21  1  0
 20 22  1  0
 20 23  1  0
 23  2  1  6
 12  5  1  0
 23 13  1  0
 19 14  1  0
M  END
>  <zinc_id>  (24) 
ZINC000000025223

>  <smiles>  (24) 
CN1CCc2cc(Cl)c(O)cc2[C@H]2c3ccccc3C(C)(C)[C@@H]21

$$$$

     RDKit          3D

 27 29  0  0  0  0  0  0  0  0999 V2000
   -3.7183   -3.8473   -0.6380 C   0  0  0  0  0  0  0  0  0  0  0  0
   -2.7506   -2.7779   -0.3133 C   0  0  0  0  0  0  0  0  0  0  0  0
   -1.8123   -2.3419   -1.2449 C   0  0  0  0  0  0  0  0  0  0  0  0
   -0.9579   -1.3551   -0.8661 C   0  0  0  0  0  0  0  0  0  0  0  0
   -0.9216   -0.7344    0.3541 C   0  0  0  0  0  0  0  0  0  0  0  0
    0.0056    0.2901    0.6763 N   0  0  0  0  0  0  0  0  0  0  0  0
    1.3963    0.0162    0.8668 C   0  0  0  0  0  0  0  0  0  0  0  0
    2.2261    0.8534    1.1668 O   0  0  0  0  0  0  0  0  0  0  0  0
    1.8067   -1.5172    0.6541 C   0  0  2  0  0  0  0  0  0  0  0  0
    3.4503   -1.2774    0.7075 C   0  0  0  0  0  0  0  0  0  0  0  0
    3.8248   -1.9598   -0.4693 N   0  0  0  0  0  0  0  0  0  0  0  0
    5.0130   -2.7392   -0.6103 C   0  0  0  0  0  0  0  0  0  0  0  0
    2.8428   -1.7248   -1.4064 C   0  0  0  0  0  0  0  0  0  0  0  0
    1.7574   -1.4862   -0.9100 N   0  0  0  0  0  0  0  0  0  0  0  0
   -0.4683    1.6292    0.8560 C   0  0  0  0  0  0  0  0  0  0  0  0
   -1.0040    1.9703    2.0733 N   0  0  0  0  0  0  0  0  0  0  0  0
   -1.4559    3.2002    2.2940 C   0  0  0  0  0  0  0  0  0  0  0  0
   -1.4045    4.1545    1.3358 C   0  0  0  0  0  0  0  0  0  0  0  0
   -0.8696    3.8157    0.1188 C   0  0  0  0  0  0  0  0  0  0  0  0
   -0.3835    2.5303   -0.1529 C   0  0  0  0  0  0  0  0  0  0  0  0
    0.2497    2.2646   -1.7217 S   0  0  0  0  0  0  0  0  0  0  0  0
    0.1439    3.7521   -2.6519 N   0  0  0  0  0  0  0  0  0  0  0  0
    1.7510    2.0495   -1.5960 O   0  0  0  0  0  0  0  0  0  0  0  0
   -0.3902    1.2526   -2.5645 O   0  0  0  0  0  0  0  0  0  0  0  0
   -1.8671   -1.1894    1.2620 C   0  0  0  0  0  0  0  0  0  0  0  0
   -2.7652   -2.1853    0.9498 C   0  0  0  0  0  0  0  0  0  0  0  0
   -3.6985   -2.6432    1.8299 F   0  0  0  0  0  0  0  0  0  0  0  0
  1  2  1  0
  2  3  2  0
  3  4  1  0
  4  5  2  0
  5  6  1  0
  6  7  1  0
  7  8  2  0
  9  7  1  1
  9 10  1  0
 10 11  1  0
 11 12  1  0
 11 13  1  0
 13 14  2  0
  6 15  1  0
 15 16  2  0
 16 17  1  0
 17 18  2  0
 18 19  1  0
 19 20  2  0
 20 21  1  0
 21 22  1  0
 21 23  2  0
 21 24  2  0
  5 25  1  0
 25 26  2  0
 26 27  1  0
 26  2  1  0
 14  9  1  0
 20 15  1  0
M  END
>  <zinc_id>  (25) 
ZINC000000025871

>  <smiles>  (25) 
Cc1ccc(N(C(=O)[C@@H]2CN(C)C=N2)c2ncccc2S(N)(=O)=O)cc1F

$$$$

     RDKit          3D

 18 18  0  0  0  0  0  0  0  0999 V2000
    6.1694   -1.0485   -0.3729 C   0  0  0  0  0  0  0  0  0  0  0  0
    4.7503   -0.5941   -0.5073 C   0  0  0  0  0  0  0  0  0  0  0  0
    4.3700    0.1249   -1.4813 O   0  0  0  0  0  0  0  0  0  0  0  0
    3.7619   -0.9433    0.4447 N   0  0  0  0  0  0  0  0  0  0  0  0
    2.3990   -0.4965    0.2993 C   0  0  0  0  0  0  0  0  0  0  0  0
    1.4402   -0.8387    1.2283 C   0  0  0  0  0  0  0  0  0  0  0  0
    0.1425   -0.4097    1.0843 C   0  0  0  0  0  0  0  0  0  0  0  0
   -0.2082    0.3705    0.0017 C   0  0  0  0  0  0  0  0  0  0  0  0
   -1.8761    0.9342   -0.2030 S   0  0  0  0  0  0  0  0  0  0  0  0
   -1.7788    2.2497   -0.9638 O   0  0  0  0  0  0  0  0  0  0  0  0
   -2.4295    1.2481    1.1322 O   0  0  0  0  0  0  0  0  0  0  0  0
   -2.7482   -0.2102   -1.1107 N   0  0  0  0  0  0  0  0  0  0  0  0
   -2.7825   -1.4627   -0.4074 C   0  0  0  0  0  0  0  0  0  0  0  0
   -4.0961    0.2110   -1.3877 C   0  0  0  0  0  0  0  0  0  0  0  0
   -5.1074   -0.3000   -0.3956 C   0  0  0  0  0  0  0  0  0  0  0  0
   -4.7754    0.1663    0.8669 O   0  0  0  0  0  0  0  0  0  0  0  0
    0.7393    0.7175   -0.9304 C   0  0  0  0  0  0  0  0  0  0  0  0
    2.0295    0.2816   -0.7723 C   0  0  0  0  0  0  0  0  0  0  0  0
  1  2  1  0
  2  3  2  0
  2  4  1  0
  4  5  1  0
  5  6  2  0
  6  7  1  0
  7  8  2  0
  8  9  1  0
  9 10  2  0
  9 11  2  0
  9 12  1  0
 12 13  1  0
 12 14  1  0
 14 15  1  0
 15 16  1  0
  8 17  1  0
 17 18  2  0
 18  5  1  0
M  END
>  <zinc_id>  (26) 
ZINC000000029138

>  <smiles>  (26) 
CC(=O)Nc1ccc(S(=O)(=O)N(C)CCO)cc1

$$$$

     RDKit          3D

 23 24  0  0  0  0  0  0  0  0999 V2000
   -3.7153   -0.9837    3.2076 C   0  0  0  0  0  0  0  0  0  0  0  0
   -3.1820   -0.6835    1.9453 O   0  0  0  0  0  0  0  0  0  0  0  0
   -3.6421    0.3533    1.1358 C   0  0  0  0  0  0  0  0  0  0  0  0
   -4.6768    1.1464    1.5697 C   0  0  0  0  0  0  0  0  0  0  0  0
   -5.0874    2.1578    0.7211 C   0  0  0  0  0  0  0  0  0  0  0  0
   -4.4869    2.3567   -0.4965 C   0  0  0  0  0  0  0  0  0  0  0  0
   -3.4625    1.5572   -0.9051 C   0  0  0  0  0  0  0  0  0  0  0  0
   -3.0168    0.5227   -0.0769 C   0  0  0  0  0  0  0  0  0  0  0  0
   -1.9060   -0.3418   -0.5236 C   0  0  0  0  0  0  0  0  0  0  0  0
   -1.4245    0.0349   -1.8180 N   0  0  0  0  0  0  0  0  0  0  0  0
   -0.1380   -0.9447   -2.3672 S   0  0  0  0  0  0  0  0  0  0  0  0
   -0.6134   -2.3902   -2.3221 O   0  0  0  0  0  0  0  0  0  0  0  0
    0.2371   -0.6407   -3.7685 O   0  0  0  0  0  0  0  0  0  0  0  0
    1.1956   -0.7731   -1.2593 C   0  0  0  0  0  0  0  0  0  0  0  0
    1.2744   -1.6293   -0.1904 C   0  0  0  0  0  0  0  0  0  0  0  0
    2.3351   -1.4840    0.6805 C   0  0  0  0  0  0  0  0  0  0  0  0
    3.3140   -0.5240    0.5275 C   0  0  0  0  0  0  0  0  0  0  0  0
    4.3564   -0.4750    1.4920 N   0  0  0  0  0  0  0  0  0  0  0  0
    5.4126    0.4734    1.4281 C   0  0  0  0  0  0  0  0  0  0  0  0
    6.4448    0.4465    2.4707 C   0  0  0  0  0  0  0  0  0  0  0  0
    5.3863    1.2842    0.4630 O   0  0  0  0  0  0  0  0  0  0  0  0
    3.2222    0.3257   -0.5467 C   0  0  0  0  0  0  0  0  0  0  0  0
    2.1732    0.2112   -1.4419 C   0  0  0  0  0  0  0  0  0  0  0  0
  1  2  1  0
  2  3  1  0
  3  4  2  0
  4  5  1  0
  5  6  2  0
  6  7  1  0
  7  8  2  0
  8  9  1  0
  9 10  1  0
 10 11  1  0
 11 12  2  0
 11 13  2  0
 11 14  1  0
 14 15  2  0
 15 16  1  0
 16 17  2  0
 17 18  1  0
 18 19  1  0
 19 20  1  0
 19 21  2  0
 17 22  1  0
 22 23  2  0
  8  3  1  0
 23 14  1  0
M  END
>  <zinc_id>  (27) 
ZINC000000029693

>  <smiles>  (27) 
COc1ccccc1CNS(=O)(=O)c1ccc(NC(C)=O)cc1

$$$$

     RDKit          3D

 15 15  0  0  0  0  0  0  0  0999 V2000
    4.1415   -0.2112    1.2138 C   0  0  0  0  0  0  0  0  0  0  0  0
    2.9968   -0.6176    0.3506 C   0  0  0  0  0  0  0  0  0  0  0  0
    3.1298    0.1097   -0.9490 C   0  0  0  0  0  0  0  0  0  0  0  0
    1.9147   -0.3359   -1.9457 C   0  0  1  0  0  0  0  0  0  0  0  0
    2.2891   -1.9497   -1.9507 C   0  0  0  0  0  0  0  0  0  0  0  0
    0.8678   -0.4706   -0.8229 N   0  0  0  0  0  0  0  0  0  0  0  0
   -0.1915    0.5057   -0.7922 C   0  0  0  0  0  0  0  0  0  0  0  0
   -0.2152    1.4158   -1.6826 O   0  0  0  0  0  0  0  0  0  0  0  0
   -1.2047    0.4673    0.2202 C   0  0  0  0  0  0  0  0  0  0  0  0
   -1.2468    1.4747    1.1969 C   0  0  0  0  0  0  0  0  0  0  0  0
   -2.2125    1.3791    2.2008 C   0  0  0  0  0  0  0  0  0  0  0  0
   -3.0684    0.3322    2.2064 C   0  0  0  0  0  0  0  0  0  0  0  0
   -3.0516   -0.6742    1.2634 C   0  0  0  0  0  0  0  0  0  0  0  0
   -2.0971   -0.5850    0.2701 C   0  0  0  0  0  0  0  0  0  0  0  0
   -2.0517   -1.6713   -0.7792 C   0  0  0  0  0  0  0  0  0  0  0  0
  1  2  1  0
  2  3  1  0
  3  4  1  0
  4  5  1  1
  4  6  1  0
  6  7  1  0
  7  8  2  0
  7  9  1  0
  9 10  2  0
 10 11  1  0
 11 12  2  0
 12 13  1  0
 13 14  2  0
 14 15  1  0
 14  9  1  0
M  END
>  <zinc_id>  (28) 
ZINC000000030353

>  <smiles>  (28) 
CCC[C@@H](C)NC(=O)c1ccccc1C

$$$$

     RDKit          3D

 28 31  0  0  0  0  0  0  0  0999 V2000
    6.8417   -1.2442    1.8961 C   0  0  0  0  0  0  0  0  0  0  0  0
    7.1924   -1.4638    0.5640 O   0  0  0  0  0  0  0  0  0  0  0  0
    7.6257   -0.2885   -0.0359 C   0  0  0  0  0  0  0  0  0  0  0  0
    6.5338    0.7600   -0.0052 C   0  0  0  0  0  0  0  0  0  0  0  0
    5.4025    0.2292   -0.7271 N   0  0  0  0  0  0  0  0  0  0  0  0
    4.7635   -0.8790   -0.0713 C   0  0  0  0  0  0  0  0  0  0  0  0
    3.6890   -0.4416    0.8960 C   0  0  0  0  0  0  0  0  0  0  0  0
    3.7343    0.9806    1.1487 N   0  0  0  0  0  0  0  0  0  0  0  0
    2.6303    1.3192    2.0193 C   0  0  0  0  0  0  0  0  0  0  0  0
    1.3728    0.9509    1.3231 C   0  0  0  0  0  0  0  0  0  0  0  0
    1.3025   -0.2960    0.7374 C   0  0  0  0  0  0  0  0  0  0  0  0
    0.1553   -0.6952    0.0784 C   0  0  0  0  0  0  0  0  0  0  0  0
   -0.9351    0.1371   -0.0069 C   0  0  0  0  0  0  0  0  0  0  0  0
   -2.1654   -0.2764   -0.7060 C   0  0  0  0  0  0  0  0  0  0  0  0
   -3.2892    0.4542   -0.8458 N   0  0  0  0  0  0  0  0  0  0  0  0
   -4.2168   -0.2339   -1.5419 C   0  0  0  0  0  0  0  0  0  0  0  0
   -5.5809    0.2326   -1.8994 C   0  0  0  0  0  0  0  0  0  0  0  0
   -6.5432   -0.1428   -0.8820 N   0  0  0  0  0  0  0  0  0  0  0  0
   -7.2781   -1.2659   -0.8006 C   0  0  0  0  0  0  0  0  0  0  0  0
   -8.0585   -1.2362    0.3044 N   0  0  0  0  0  0  0  0  0  0  0  0
   -7.7997   -0.0828    0.9068 C   0  0  0  0  0  0  0  0  0  0  0  0
   -6.8880    0.5639    0.1837 N   0  0  0  0  0  0  0  0  0  0  0  0
   -3.6135   -1.4197   -1.8237 N   0  0  0  0  0  0  0  0  0  0  0  0
   -2.4116   -1.3998   -1.3138 O   0  0  0  0  0  0  0  0  0  0  0  0
   -0.8398    1.3776    0.5861 C   0  0  0  0  0  0  0  0  0  0  0  0
    0.2901    1.7979    1.2470 C   0  0  0  0  0  0  0  0  0  0  0  0
    3.5979    1.7555   -0.0625 C   0  0  0  0  0  0  0  0  0  0  0  0
    4.4880    1.2441   -1.1690 C   0  0  0  0  0  0  0  0  0  0  0  0
  1  2  1  0
  2  3  1  0
  3  4  1  0
  4  5  1  0
  5  6  1  0
  6  7  1  0
  7  8  1  0
  8  9  1  0
  9 10  1  0
 10 11  2  0
 11 12  1  0
 12 13  2  0
 13 14  1  0
 14 15  2  0
 15 16  1  0
 16 17  1  0
 17 18  1  0
 18 19  1  0
 19 20  2  0
 20 21  1  0
 21 22  2  0
 16 23  2  0
 23 24  1  0
 13 25  1  0
 25 26  2  0
  8 27  1  0
 27 28  1  0
 28  5  1  0
 26 10  1  0
 24 14  1  0
 22 18  1  0
M  END
>  <zinc_id>  (29) 
ZINC000000031339

>  <smiles>  (29) 
COCCN1CCN(Cc2ccc(-c3nc(Cn4cncn4)no3)cc2)CC1

$$$$

     RDKit          3D

 30 34  0  0  0  0  0  0  0  0999 V2000
    0.0719   -1.4594    0.8236 O   0  0  0  0  0  0  0  0  0  0  0  0
    0.5978   -0.7237    0.0425 C   0  0  0  0  0  0  0  0  0  0  0  0
   -0.1491    0.1262   -1.0631 C   0  0  1  0  0  0  0  0  0  0  0  0
    0.0186   -0.9981   -2.2585 C   0  0  0  0  0  0  0  0  0  0  0  0
   -0.7272   -2.1436   -1.7847 C   0  0  0  0  0  0  0  0  0  0  0  0
   -1.7492   -1.6676   -0.8418 C   0  0  0  0  0  0  0  0  0  0  0  0
   -1.5965   -0.2856   -0.6927 N   0  0  0  0  0  0  0  0  0  0  0  0
   -2.5608    0.6585   -0.2763 C   0  0  0  0  0  0  0  0  0  0  0  0
   -2.2510    1.8646   -0.1987 O   0  0  0  0  0  0  0  0  0  0  0  0
   -3.9127    0.2627    0.0672 C   0  0  0  0  0  0  0  0  0  0  0  0
   -4.4437   -0.9898    0.0480 N   0  0  0  0  0  0  0  0  0  0  0  0
   -5.6935   -0.9921    0.4141 N   0  0  0  0  0  0  0  0  0  0  0  0
   -6.0388    0.2799    0.6926 C   0  0  0  0  0  0  0  0  0  0  0  0
   -4.9475    1.0796    0.4842 C   0  0  0  0  0  0  0  0  0  0  0  0
   -5.0769    2.5286    0.7232 C   0  0  0  0  0  0  0  0  0  0  0  0
   -6.3514    3.0480    0.1409 C   0  0  0  0  0  0  0  0  0  0  0  0
   -7.5647    2.2352    0.4457 C   0  0  0  0  0  0  0  0  0  0  0  0
   -7.2884    0.9473    1.1501 C   0  0  0  0  0  0  0  0  0  0  0  0
    2.0222   -0.5462    0.0470 N   0  0  0  0  0  0  0  0  0  0  0  0
    2.7143    0.3327   -0.8800 C   0  0  0  0  0  0  0  0  0  0  0  0
    3.8857   -0.4149   -1.5017 C   0  0  0  0  0  0  0  0  0  0  0  0
    4.7678   -0.9230   -0.4554 N   0  0  0  0  0  0  0  0  0  0  0  0
    5.1162    0.1718    0.4361 C   0  0  0  0  0  0  0  0  0  0  0  0
    5.8852    1.2265   -0.3483 C   0  0  0  0  0  0  0  0  0  0  0  0
    7.1719    0.6284   -0.8901 C   0  0  0  0  0  0  0  0  0  0  0  0
    8.0143    0.1468    0.2930 C   0  0  0  0  0  0  0  0  0  0  0  0
    7.2633   -0.8980    1.0993 C   0  0  0  0  0  0  0  0  0  0  0  0
    5.9357   -0.3499    1.5994 C   0  0  0  0  0  0  0  0  0  0  0  0
    4.0470   -1.8860    0.3625 C   0  0  0  0  0  0  0  0  0  0  0  0
    2.8395   -1.2588    1.0157 C   0  0  0  0  0  0  0  0  0  0  0  0
  1  2  2  0
  3  2  1  1
  3  4  1  0
  4  5  1  0
  5  6  1  0
  6  7  1  0
  7  8  1  0
  8  9  2  0
  8 10  1  0
 10 11  2  0
 11 12  1  0
 12 13  1  0
 13 14  2  0
 14 15  1  0
 15 16  1  0
 16 17  1  0
 17 18  1  0
  2 19  1  0
 19 20  1  0
 20 21  1  0
 21 22  1  0
 22 23  1  0
 23 24  1  0
 24 25  1  0
 25 26  1  0
 26 27  1  0
 27 28  1  0
 22 29  1  0
 29 30  1  0
  7  3  1  0
 14 10  1  0
 30 19  1  0
 18 13  1  0
 28 23  1  0
M  END
>  <zinc_id>  (30) 
ZINC000000033518

>  <smiles>  (30) 
O=C([C@H]1CCCN1C(=O)c1n[nH]c2c1CCCC2)N1CCN(C2CCCCC2)CC1

$$$$

     RDKit          3D

 22 23  0  0  0  0  0  0  0  0999 V2000
   -5.3510    0.6657    0.3345 C   0  0  0  0  0  0  0  0  0  0  0  0
   -3.8783    0.5585    0.6828 C   0  0  0  0  0  0  0  0  0  0  0  0
   -3.0512    1.5199    0.2644 C   0  0  0  0  0  0  0  0  0  0  0  0
   -3.4508    2.6909   -0.5131 C   0  0  0  0  0  0  0  0  0  0  0  0
   -1.6424    1.1980    0.6928 C   0  0  0  0  0  0  0  0  0  0  0  0
   -1.4906   -0.1104   -0.3174 C   0  0  1  0  0  0  0  0  0  0  0  0
    0.0408   -0.3221   -0.0782 C   0  0  0  0  0  0  0  0  0  0  0  0
    0.3643   -1.4674    0.2651 O   0  0  0  0  0  0  0  0  0  0  0  0
    0.9712    0.6685   -0.2327 N   0  0  0  0  0  0  0  0  0  0  0  0
    2.3470    0.4347   -0.0083 C   0  0  0  0  0  0  0  0  0  0  0  0
    2.7605   -0.8183    0.3743 C   0  0  0  0  0  0  0  0  0  0  0  0
    4.1011   -1.1058    0.6089 C   0  0  0  0  0  0  0  0  0  0  0  0
    5.0638   -0.1451    0.4662 C   0  0  0  0  0  0  0  0  0  0  0  0
    6.7384   -0.5340    0.7671 Cl  0  0  0  0  0  0  0  0  0  0  0  0
    4.6499    1.1172    0.0810 C   0  0  0  0  0  0  0  0  0  0  0  0
    3.3195    1.3988   -0.1507 C   0  0  0  0  0  0  0  0  0  0  0  0
    2.8592    3.0136   -0.6354 Cl  0  0  0  0  0  0  0  0  0  0  0  0
   -2.0457   -1.2352    0.8097 C   0  0  2  0  0  0  0  0  0  0  0  0
   -2.8356   -2.1008   -0.2277 C   0  0  0  0  0  0  0  0  0  0  0  0
   -4.0404   -2.3209   -0.1158 O   0  0  0  0  0  0  0  0  0  0  0  0
   -2.1442   -2.6241   -1.2912 O   0  0  0  0  0  0  0  0  0  0  0  0
   -3.2855   -0.4818    1.4505 C   0  0  0  0  0  0  0  0  0  0  0  0
  1  2  1  0
  2  3  2  0
  3  4  1  0
  3  5  1  0
  5  6  1  0
  6  7  1  1
  7  8  2  0
  7  9  1  0
  9 10  1  0
 10 11  2  0
 11 12  1  0
 12 13  2  0
 13 14  1  0
 13 15  1  0
 15 16  2  0
 16 17  1  0
  6 18  1  0
 18 19  1  6
 19 20  2  0
 19 21  1  0
 18 22  1  0
 22  2  1  0
 16 10  1  0
M  END
>  <zinc_id>  (31) 
ZINC000000034758

>  <smiles>  (31) 
CC1=C(C)C[C@@H](C(=O)Nc2ccc(Cl)cc2Cl)[C@H](C(=O)O)C1

$$$$

     RDKit          3D

 25 28  0  0  0  0  0  0  0  0999 V2000
   -2.7102    0.7792    2.5004 O   0  0  0  0  0  0  0  0  0  0  0  0
   -2.5864    0.1658    1.4034 C   0  0  0  0  0  0  0  0  0  0  0  0
   -3.5422    0.5244    0.3328 C   0  0  0  0  0  0  0  0  0  0  0  0
   -4.1453    1.7497    0.2856 C   0  0  0  0  0  0  0  0  0  0  0  0
   -5.0343    2.0430   -0.7185 C   0  0  0  0  0  0  0  0  0  0  0  0
   -5.3561    1.1303   -1.7126 C   0  0  0  0  0  0  0  0  0  0  0  0
   -4.7393   -0.1140   -1.6593 C   0  0  0  0  0  0  0  0  0  0  0  0
   -3.8499   -0.3932   -0.6451 C   0  0  0  0  0  0  0  0  0  0  0  0
   -1.5629   -0.8474    1.1838 C   0  0  0  0  0  0  0  0  0  0  0  0
   -1.4723   -1.9723    1.9674 C   0  0  0  0  0  0  0  0  0  0  0  0
   -0.5212   -2.9377    1.7641 C   0  0  0  0  0  0  0  0  0  0  0  0
    0.3624   -2.7413    0.7251 C   0  0  0  0  0  0  0  0  0  0  0  0
    0.3016   -1.6395   -0.0699 C   0  0  0  0  0  0  0  0  0  0  0  0
   -0.6550   -0.6929    0.1541 C   0  0  0  0  0  0  0  0  0  0  0  0
   -0.7606    0.4587   -0.6309 O   0  0  0  0  0  0  0  0  0  0  0  0
    0.1405    0.6674   -1.6969 C   0  0  0  0  0  0  0  0  0  0  0  0
    1.5691    0.7070   -1.2080 C   0  0  0  0  0  0  0  0  0  0  0  0
    2.4579   -0.2754   -1.2255 N   0  0  0  0  0  0  0  0  0  0  0  0
    3.6566   -0.0757   -0.7590 C   0  0  0  0  0  0  0  0  0  0  0  0
    4.7005   -1.0251   -0.7124 C   0  0  0  0  0  0  0  0  0  0  0  0
    5.9047   -0.6917   -0.1999 C   0  0  0  0  0  0  0  0  0  0  0  0
    6.2351    0.5457    0.3086 C   0  0  0  0  0  0  0  0  0  0  0  0
    5.2022    1.4904    0.2642 C   0  0  0  0  0  0  0  0  0  0  0  0
    3.9453    1.1634   -0.2639 C   0  0  0  0  0  0  0  0  0  0  0  0
    2.4597    1.9813   -0.5000 S   0  0  0  0  0  0  0  0  0  0  0  0
  1  2  2  0
  2  3  1  0
  3  4  2  0
  4  5  1  0
  5  6  2  0
  6  7  1  0
  7  8  2  0
  2  9  1  0
  9 10  2  0
 10 11  1  0
 11 12  2  0
 12 13  1  0
 13 14  2  0
 14 15  1  0
 15 16  1  0
 16 17  1  0
 17 18  2  0
 18 19  1  0
 19 20  2  0
 20 21  1  0
 21 22  2  0
 22 23  1  0
 23 24  2  0
 24 25  1  0
  8  3  1  0
 14  9  1  0
 25 17  1  0
 24 19  1  0
M  END
>  <zinc_id>  (32) 
ZINC000000035284

>  <smiles>  (32) 
O=C(c1ccccc1)c1ccccc1OCc1nc2ccccc2s1

$$$$

     RDKit          3D

 16 17  0  0  0  0  0  0  0  0999 V2000
    3.0387    0.9459    0.4799 O   0  0  0  0  0  0  0  0  0  0  0  0
    3.6307    0.7347   -0.6162 C   0  0  0  0  0  0  0  0  0  0  0  0
    4.9795    1.0472   -0.7274 O   0  0  0  0  0  0  0  0  0  0  0  0
    2.8361    0.1610   -1.7251 C   0  0  0  0  0  0  0  0  0  0  0  0
    2.6726   -1.3328   -1.5337 C   0  0  0  0  0  0  0  0  0  0  0  0
    1.9694   -1.6737   -0.2448 C   0  0  0  0  0  0  0  0  0  0  0  0
    0.6099   -1.0758   -0.2098 C   0  0  0  0  0  0  0  0  0  0  0  0
   -0.3147   -1.1628    0.7952 C   0  0  0  0  0  0  0  0  0  0  0  0
   -1.4447   -0.4588    0.4144 C   0  0  0  0  0  0  0  0  0  0  0  0
   -2.6791   -0.1814    0.9749 C   0  0  0  0  0  0  0  0  0  0  0  0
   -3.6080    0.5726    0.3138 C   0  0  0  0  0  0  0  0  0  0  0  0
   -5.2804    0.8996    1.1688 Br  0  0  0  0  0  0  0  0  0  0  0  0
   -3.2948    1.0607   -0.9386 C   0  0  0  0  0  0  0  0  0  0  0  0
   -2.0641    0.7935   -1.5154 C   0  0  0  0  0  0  0  0  0  0  0  0
   -1.1302    0.0335   -0.8464 C   0  0  0  0  0  0  0  0  0  0  0  0
    0.0792   -0.3635   -1.1468 O   0  0  0  0  0  0  0  0  0  0  0  0
  1  2  2  0
  2  3  1  0
  2  4  1  0
  4  5  1  0
  5  6  1  0
  6  7  1  0
  7  8  2  0
  8  9  1  0
  9 10  2  0
 10 11  1  0
 11 12  1  0
 11 13  2  0
 13 14  1  0
 14 15  2  0
 15 16  1  0
 16  7  1  0
 15  9  1  0
M  END
>  <zinc_id>  (33) 
ZINC000000036655

>  <smiles>  (33) 
O=C(O)CCCc1cc2cc(Br)ccc2o1

$$$$

     RDKit          3D

 12 12  0  0  0  0  0  0  0  0999 V2000
   -2.1025   -2.7705   -0.5480 C   0  0  0  0  0  0  0  0  0  0  0  0
   -2.0848   -1.3474   -0.7798 N   0  0  0  0  0  0  0  0  0  0  0  0
   -0.9769   -0.5537   -0.3785 C   0  0  0  0  0  0  0  0  0  0  0  0
    0.0738   -1.1334    0.2271 N   0  0  0  0  0  0  0  0  0  0  0  0
    1.1250   -0.4290    0.6161 C   0  0  0  0  0  0  0  0  0  0  0  0
    2.2364   -1.0148    1.2521 O   0  0  0  0  0  0  0  0  0  0  0  0
    2.1974   -2.4112    1.4692 C   0  0  0  0  0  0  0  0  0  0  0  0
    1.1702    0.9314    0.4081 C   0  0  0  0  0  0  0  0  0  0  0  0
    0.1018    1.5376   -0.2105 C   0  0  0  0  0  0  0  0  0  0  0  0
    0.1606    2.9088   -0.4138 O   0  0  0  0  0  0  0  0  0  0  0  0
   -0.9549    3.5060   -1.0537 C   0  0  0  0  0  0  0  0  0  0  0  0
   -0.9462    0.7762   -0.5883 N   0  0  0  0  0  0  0  0  0  0  0  0
  1  2  1  0
  2  3  1  0
  3  4  2  0
  4  5  1  0
  5  6  1  0
  6  7  1  0
  5  8  2  0
  8  9  1  0
  9 10  1  0
 10 11  1  0
  9 12  2  0
 12  3  1  0
M  END
>  <zinc_id>  (34) 
ZINC000000039613

>  <smiles>  (34) 
CNc1nc(OC)cc(OC)n1

$$$$

     RDKit          3D

 26 28  0  0  0  0  0  0  0  0999 V2000
   -5.7494    2.7039    0.4929 C   0  0  0  0  0  0  0  0  0  0  0  0
   -5.0037    1.7301    1.3646 C   0  0  0  0  0  0  0  0  0  0  0  0
   -4.9307    0.4193    0.7339 N   0  0  0  0  0  0  0  0  0  0  0  0
   -5.8441   -0.5303    0.9109 N   0  0  0  0  0  0  0  0  0  0  0  0
   -5.5112   -1.6197    0.2076 C   0  0  0  0  0  0  0  0  0  0  0  0
   -6.3061   -2.8783    0.1676 C   0  0  0  0  0  0  0  0  0  0  0  0
   -4.3278   -1.3129   -0.4328 C   0  0  0  0  0  0  0  0  0  0  0  0
   -3.9795   -0.0320   -0.0917 C   0  0  0  0  0  0  0  0  0  0  0  0
   -2.8400    0.7344   -0.5257 C   0  0  0  0  0  0  0  0  0  0  0  0
   -1.7344    0.1344   -1.0163 O   0  0  0  0  0  0  0  0  0  0  0  0
   -0.8494   -0.7280   -0.4902 C   0  0  0  0  0  0  0  0  0  0  0  0
   -0.9631   -1.1131    0.6585 O   0  0  0  0  0  0  0  0  0  0  0  0
    0.3694   -1.2995   -1.2885 C   0  0  1  0  0  0  0  0  0  0  0  0
    0.7755    0.1031   -2.0275 C   0  0  0  0  0  0  0  0  0  0  0  0
    1.4343    0.8557   -0.9975 C   0  0  0  0  0  0  0  0  0  0  0  0
    1.3158    2.0663   -0.7078 O   0  0  0  0  0  0  0  0  0  0  0  0
    2.2637   -0.0999   -0.3752 N   0  0  0  0  0  0  0  0  0  0  0  0
    3.6781    0.0609   -0.0890 C   0  0  0  0  0  0  0  0  0  0  0  0
    4.1230    1.2539    0.4329 C   0  0  0  0  0  0  0  0  0  0  0  0
    5.4757    1.4584    0.7161 C   0  0  0  0  0  0  0  0  0  0  0  0
    5.9916    2.7294    1.2734 C   0  0  0  0  0  0  0  0  0  0  0  0
    6.3858    0.4473    0.4694 C   0  0  0  0  0  0  0  0  0  0  0  0
    5.9663   -0.7616   -0.0543 C   0  0  0  0  0  0  0  0  0  0  0  0
    4.6125   -0.9124   -0.3175 C   0  0  0  0  0  0  0  0  0  0  0  0
    4.1813   -2.2150   -0.8772 C   0  0  0  0  0  0  0  0  0  0  0  0
    1.4664   -1.1946   -0.0903 C   0  0  0  0  0  0  0  0  0  0  0  0
  1  2  1  0
  2  3  1  0
  3  4  1  0
  4  5  2  0
  5  6  1  0
  5  7  1  0
  7  8  2  0
  8  9  1  0
  9 10  1  0
 10 11  1  0
 11 12  2  0
 13 11  1  1
 13 14  1  0
 14 15  1  0
 15 16  2  0
 15 17  1  0
 17 18  1  0
 18 19  2  0
 19 20  1  0
 20 21  1  0
 20 22  2  0
 22 23  1  0
 23 24  2  0
 24 25  1  0
 17 26  1  0
  8  3  1  0
 26 13  1  0
 24 18  1  0
M  END
>  <zinc_id>  (35) 
ZINC000000040352

>  <smiles>  (35) 
CCn1nc(C)cc1COC(=O)[C@H]1CC(=O)N(c2cc(C)ccc2C)C1

$$$$

     RDKit          3D

 23 25  0  0  0  0  0  0  0  0999 V2000
   -1.6269    0.9161    0.5118 O   0  0  0  0  0  0  0  0  0  0  0  0
   -1.3838    0.3167   -0.5088 C   0  0  0  0  0  0  0  0  0  0  0  0
   -2.3985   -0.3060   -1.2311 N   0  0  0  0  0  0  0  0  0  0  0  0
   -3.7703   -0.3226   -0.8926 C   0  0  0  0  0  0  0  0  0  0  0  0
   -4.7776   -0.9544   -1.5793 C   0  0  0  0  0  0  0  0  0  0  0  0
   -6.1119   -0.9251   -1.1853 C   0  0  0  0  0  0  0  0  0  0  0  0
   -6.4368   -0.2326   -0.0608 C   0  0  0  0  0  0  0  0  0  0  0  0
   -5.4529    0.4269    0.6737 C   0  0  0  0  0  0  0  0  0  0  0  0
   -5.9741    1.2896    2.1030 Cl  0  0  0  0  0  0  0  0  0  0  0  0
   -4.1415    0.3689    0.2451 C   0  0  0  0  0  0  0  0  0  0  0  0
    0.1028    0.1938   -1.1036 C   0  0  2  0  0  0  0  0  0  0  0  0
    0.0930   -1.4864   -1.0906 C   0  0  0  0  0  0  0  0  0  0  0  0
    1.5612   -1.5698   -0.8454 C   0  0  0  0  0  0  0  0  0  0  0  0
    2.2939   -2.5230   -1.1958 O   0  0  0  0  0  0  0  0  0  0  0  0
    2.0271   -0.4227   -0.1603 N   0  0  0  0  0  0  0  0  0  0  0  0
    3.3432    0.0842    0.0387 C   0  0  0  0  0  0  0  0  0  0  0  0
    3.5978    1.4018    0.3453 C   0  0  0  0  0  0  0  0  0  0  0  0
    4.8553    1.8939    0.5362 C   0  0  0  0  0  0  0  0  0  0  0  0
    5.9537    1.0738    0.4276 C   0  0  0  0  0  0  0  0  0  0  0  0
    7.2254    1.5570    0.6173 F   0  0  0  0  0  0  0  0  0  0  0  0
    5.7242   -0.2501    0.1213 C   0  0  0  0  0  0  0  0  0  0  0  0
    4.4485   -0.7534   -0.0730 C   0  0  0  0  0  0  0  0  0  0  0  0
    0.8482    0.2234    0.3657 C   0  0  0  0  0  0  0  0  0  0  0  0
  1  2  2  0
  2  3  1  0
  3  4  1  0
  4  5  2  0
  5  6  1  0
  6  7  2  0
  7  8  1  0
  8  9  1  0
  8 10  2  0
 11  2  1  1
 11 12  1  0
 12 13  1  0
 13 14  2  0
 13 15  1  0
 15 16  1  0
 16 17  2  0
 17 18  1  0
 18 19  2  0
 19 20  1  0
 19 21  1  0
 21 22  2  0
 15 23  1  0
 10  4  1  0
 23 11  1  0
 22 16  1  0
M  END
>  <zinc_id>  (36) 
ZINC000000043045

>  <smiles>  (36) 
O=C(Nc1cccc(Cl)c1)[C@@H]1CC(=O)N(c2ccc(F)cc2)C1

$$$$

     RDKit          3D

 24 25  0  0  0  0  0  0  0  0999 V2000
   -1.3972   -2.3383    3.2367 C   0  0  0  0  0  0  0  0  0  0  0  0
   -0.7633   -1.0742    2.7117 C   0  0  0  0  0  0  0  0  0  0  0  0
   -0.4231   -1.1258    1.3664 O   0  0  0  0  0  0  0  0  0  0  0  0
   -1.4183   -1.3473    0.4258 C   0  0  0  0  0  0  0  0  0  0  0  0
   -2.7273   -1.5143    0.8163 C   0  0  0  0  0  0  0  0  0  0  0  0
   -3.7291   -1.7346   -0.0965 C   0  0  0  0  0  0  0  0  0  0  0  0
   -3.4009   -1.7873   -1.4316 C   0  0  0  0  0  0  0  0  0  0  0  0
   -2.0767   -1.6149   -1.7809 C   0  0  0  0  0  0  0  0  0  0  0  0
   -1.1142   -1.3995   -0.8546 C   0  0  0  0  0  0  0  0  0  0  0  0
    0.3270   -1.2297   -1.4673 C   0  0  2  0  0  0  0  0  0  0  0  0
    1.0942   -2.3843   -1.1441 N   0  0  0  0  0  0  0  0  0  0  0  0
    2.1447   -2.4240   -0.2684 C   0  0  0  0  0  0  0  0  0  0  0  0
    2.9347   -3.8874   -0.0127 S   0  0  0  0  0  0  0  0  0  0  0  0
    2.6100   -1.2736    0.4480 N   0  0  0  0  0  0  0  0  0  0  0  0
    1.8277   -0.1235    0.1108 C   0  0  0  0  0  0  0  0  0  0  0  0
    2.1835    1.2124    0.7868 C   0  0  0  0  0  0  0  0  0  0  0  0
    0.8369   -0.0325   -0.7002 C   0  0  0  0  0  0  0  0  0  0  0  0
    0.1565    1.2851   -0.9042 C   0  0  0  0  0  0  0  0  0  0  0  0
   -0.8078    1.4402   -1.6748 O   0  0  0  0  0  0  0  0  0  0  0  0
    0.5515    2.4206   -0.2515 O   0  0  0  0  0  0  0  0  0  0  0  0
   -0.0096    3.6816   -0.3707 C   0  0  0  0  0  0  0  0  0  0  0  0
    0.7950    4.5728    0.5592 C   0  0  0  0  0  0  0  0  0  0  0  0
    0.1825    5.9692    0.4346 C   0  0  0  0  0  0  0  0  0  0  0  0
    2.2232    4.7094    0.0612 C   0  0  0  0  0  0  0  0  0  0  0  0
  1  2  1  0
  2  3  1  0
  3  4  1  0
  4  5  2  0
  5  6  1  0
  6  7  2  0
  7  8  1  0
  8  9  2  0
 10  9  1  1
 10 11  1  0
 11 12  1  0
 12 13  2  0
 12 14  1  0
 14 15  1  0
 15 16  1  0
 15 17  2  0
 17 18  1  0
 18 19  2  0
 18 20  1  0
 20 21  1  0
 21 22  1  0
 22 23  1  0
 22 24  1  0
  9  4  1  0
 17 10  1  0
M  END
>  <zinc_id>  (37) 
ZINC000000044536

>  <smiles>  (37) 
CCOc1ccccc1[C@@H]1NC(=S)NC(C)=C1C(=O)OCC(C)C

$$$$

     RDKit          3D

 15 16  0  0  0  0  0  0  0  0999 V2000
    5.1244    0.6898    0.5552 C   0  0  0  0  0  0  0  0  0  0  0  0
    3.6388    0.7627    0.4433 C   0  0  0  0  0  0  0  0  0  0  0  0
    3.0194    1.7256    0.9640 O   0  0  0  0  0  0  0  0  0  0  0  0
    2.8904   -0.1975   -0.2197 O   0  0  0  0  0  0  0  0  0  0  0  0
    1.5042   -0.1415   -0.3314 C   0  0  0  0  0  0  0  0  0  0  0  0
    0.9004    0.4995   -1.3952 C   0  0  0  0  0  0  0  0  0  0  0  0
   -0.4715    0.5648   -1.5220 C   0  0  0  0  0  0  0  0  0  0  0  0
   -1.3041   -0.0086   -0.5899 C   0  0  0  0  0  0  0  0  0  0  0  0
   -0.7118   -0.6522    0.4780 C   0  0  0  0  0  0  0  0  0  0  0  0
    0.6622   -0.7147    0.6003 C   0  0  0  0  0  0  0  0  0  0  0  0
   -1.7623   -1.1237    1.2393 C   0  0  0  0  0  0  0  0  0  0  0  0
   -2.9538   -0.7650    0.6319 C   0  0  0  0  0  0  0  0  0  0  0  0
   -4.3500   -1.0506    1.0823 C   0  0  0  0  0  0  0  0  0  0  0  0
   -2.6507   -0.0943   -0.4679 N   0  0  0  0  0  0  0  0  0  0  0  0
   -3.5358    0.5058   -1.4681 C   0  0  0  0  0  0  0  0  0  0  0  0
  1  2  1  0
  2  3  2  0
  2  4  1  0
  4  5  1  0
  5  6  2  0
  6  7  1  0
  7  8  2  0
  8  9  1  0
  9 10  2  0
  9 11  1  0
 11 12  2  0
 12 13  1  0
 12 14  1  0
 14 15  1  0
 10  5  1  0
 14  8  1  0
M  END
>  <zinc_id>  (38) 
ZINC000000050862

>  <smiles>  (38) 
CC(=O)Oc1ccc2c(c1)cc(C)n2C

$$$$

     RDKit          3D

 16 17  0  0  0  0  0  0  0  0999 V2000
    5.4689    0.8742   -0.2554 C   0  0  0  0  0  0  0  0  0  0  0  0
    4.2641    1.5797   -0.2213 O   0  0  0  0  0  0  0  0  0  0  0  0
    3.0735    0.8403   -0.0275 C   0  0  0  0  0  0  0  0  0  0  0  0
    3.1164   -0.5286    0.1209 C   0  0  0  0  0  0  0  0  0  0  0  0
    1.9716   -1.2735    0.3110 C   0  0  0  0  0  0  0  0  0  0  0  0
    0.7648   -0.5982    0.3487 C   0  0  0  0  0  0  0  0  0  0  0  0
   -0.5271   -1.4660    0.5662 C   0  0  1  0  0  0  0  0  0  0  0  0
   -1.1931   -0.5744    1.6100 N   0  0  0  0  0  0  0  0  0  0  0  0
   -2.3851   -0.1148    1.2484 C   0  0  0  0  0  0  0  0  0  0  0  0
   -3.0553   -1.0107    0.1418 C   0  0  1  0  0  0  0  0  0  0  0  0
   -3.9275    0.0675   -0.5419 C   0  0  0  0  0  0  0  0  0  0  0  0
   -3.9879    1.2368   -0.2203 O   0  0  0  0  0  0  0  0  0  0  0  0
   -4.6637   -0.4492   -1.6001 O   0  0  0  0  0  0  0  0  0  0  0  0
   -1.4858   -0.7750   -0.9663 S   0  0  0  0  0  0  0  0  0  0  0  0
    0.7135    0.7257    0.2060 C   0  0  0  0  0  0  0  0  0  0  0  0
    1.8528    1.4662    0.0170 C   0  0  0  0  0  0  0  0  0  0  0  0
  1  2  1  0
  2  3  1  0
  3  4  2  0
  4  5  1  0
  5  6  2  0
  7  6  1  6
  7  8  1  0
  8  9  1  0
  9 10  1  0
 10 11  1  6
 11 12  2  0
 11 13  1  0
 10 14  1  0
  6 15  1  0
 15 16  2  0
 16  3  1  0
 14  7  1  0
M  END
>  <zinc_id>  (39) 
ZINC000000053077

>  <smiles>  (39) 
COc1ccc([C@H]2NC[C@@H](C(=O)O)S2)cc1

$$$$

     RDKit          3D

 18 20  0  0  0  0  0  0  0  0999 V2000
    1.8289    0.1637    2.9416 O   0  0  0  0  0  0  0  0  0  0  0  0
    1.3198    0.0871    1.7866 C   0  0  0  0  0  0  0  0  0  0  0  0
   -0.1321    0.3054    1.6538 C   0  0  0  0  0  0  0  0  0  0  0  0
   -0.3054    0.7674    0.1170 C   0  0  2  0  0  0  0  0  0  0  0  0
   -1.8220    0.5012   -0.0544 C   0  0  0  0  0  0  0  0  0  0  0  0
   -2.6155    0.2838    1.0396 C   0  0  0  0  0  0  0  0  0  0  0  0
   -3.9924    0.0606    0.8929 C   0  0  0  0  0  0  0  0  0  0  0  0
   -4.5938    0.0480   -0.3312 C   0  0  0  0  0  0  0  0  0  0  0  0
   -3.7870    0.2690   -1.4451 C   0  0  0  0  0  0  0  0  0  0  0  0
   -2.4453    0.4849   -1.2659 C   0  0  0  0  0  0  0  0  0  0  0  0
   -1.6667    0.7044   -2.4180 O   0  0  0  0  0  0  0  0  0  0  0  0
    0.2081   -0.5594   -0.4588 O   0  0  0  0  0  0  0  0  0  0  0  0
    1.5985   -0.5635   -0.5174 C   0  0  0  0  0  0  0  0  0  0  0  0
    2.3967   -0.8548   -1.5721 C   0  0  0  0  0  0  0  0  0  0  0  0
    3.7840   -0.8241   -1.5094 C   0  0  0  0  0  0  0  0  0  0  0  0
    4.3942   -0.4791   -0.3146 C   0  0  0  0  0  0  0  0  0  0  0  0
    3.6015   -0.1792    0.7690 C   0  0  0  0  0  0  0  0  0  0  0  0
    2.2287   -0.2154    0.6865 C   0  0  0  0  0  0  0  0  0  0  0  0
  1  2  2  0
  2  3  1  0
  3  4  1  0
  4  5  1  6
  5  6  2  0
  6  7  1  0
  7  8  2  0
  8  9  1  0
  9 10  2  0
 10 11  1  0
  4 12  1  0
 12 13  1  0
 13 14  2  0
 14 15  1  0
 15 16  2  0
 16 17  1  0
 17 18  2  0
 18  2  1  0
 10  5  1  0
 18 13  1  0
M  END
>  <zinc_id>  (40) 
ZINC000000057926

>  <smiles>  (40) 
O=C1C[C@H](c2ccccc2O)Oc2ccccc21

$$$$

     RDKit          3D

 20 21  0  0  0  0  0  0  0  0999 V2000
    0.3163   -1.1510    0.8442 O   0  0  0  0  0  0  0  0  0  0  0  0
    0.4496   -1.5649   -0.3349 C   0  0  0  0  0  0  0  0  0  0  0  0
   -0.4245   -2.5765   -0.9808 C   0  0  0  0  0  0  0  0  0  0  0  0
   -1.7155   -3.0882    0.1370 S   0  0  0  0  0  0  0  0  0  0  0  0
   -2.9167   -1.8275    0.4965 C   0  0  0  0  0  0  0  0  0  0  0  0
   -3.7967   -2.1225    1.3476 O   0  0  0  0  0  0  0  0  0  0  0  0
   -2.9138   -0.5202   -0.1343 C   0  0  0  0  0  0  0  0  0  0  0  0
   -3.8941    0.3887    0.2451 C   0  0  0  0  0  0  0  0  0  0  0  0
   -3.9771    1.6496   -0.3027 C   0  0  0  0  0  0  0  0  0  0  0  0
   -3.0747    2.0528   -1.2595 C   0  0  0  0  0  0  0  0  0  0  0  0
   -2.1005    1.1522   -1.6380 C   0  0  0  0  0  0  0  0  0  0  0  0
   -2.0267   -0.1056   -1.0838 C   0  0  0  0  0  0  0  0  0  0  0  0
    1.5330   -1.0003   -1.0834 N   0  0  0  0  0  0  0  0  0  0  0  0
    2.3794   -0.0277   -0.4799 C   0  0  0  0  0  0  0  0  0  0  0  0
    2.2130    0.4185    0.8187 C   0  0  0  0  0  0  0  0  0  0  0  0
    3.0421    1.3648    1.3956 C   0  0  0  0  0  0  0  0  0  0  0  0
    4.0944    1.9058    0.6607 C   0  0  0  0  0  0  0  0  0  0  0  0
    5.1829    3.1061    1.3249 Cl  0  0  0  0  0  0  0  0  0  0  0  0
    4.2259    1.4348   -0.6278 C   0  0  0  0  0  0  0  0  0  0  0  0
    3.4038    0.5108   -1.1677 N   0  0  0  0  0  0  0  0  0  0  0  0
  1  2  2  0
  2  3  1  0
  3  4  1  0
  4  5  1  0
  5  6  2  0
  5  7  1  0
  7  8  2  0
  8  9  1  0
  9 10  2  0
 10 11  1  0
 11 12  2  0
  2 13  1  0
 13 14  1  0
 14 15  2  0
 15 16  1  0
 16 17  2  0
 17 18  1  0
 17 19  1  0
 19 20  2  0
 12  7  1  0
 20 14  1  0
M  END
>  <zinc_id>  (41) 
ZINC000000062251

>  <smiles>  (41) 
O=C(CSC(=O)c1ccccc1)Nc1ccc(Cl)cn1

$$$$

     RDKit          3D

 23 25  0  0  0  0  0  0  0  0999 V2000
   -2.7049    2.9230   -2.8830 C   0  0  0  0  0  0  0  0  0  0  0  0
   -2.6760    1.4098   -2.8569 C   0  0  0  0  0  0  0  0  0  0  0  0
   -1.5274    0.9735   -2.1018 N   0  0  0  0  0  0  0  0  0  0  0  0
   -0.2148    1.2182   -2.6693 C   0  0  0  0  0  0  0  0  0  0  0  0
    0.0939    2.6842   -2.6985 C   0  0  0  0  0  0  0  0  0  0  0  0
   -1.6509    0.3286   -0.8454 C   0  0  0  0  0  0  0  0  0  0  0  0
   -2.9037    0.1640   -0.3502 N   0  0  0  0  0  0  0  0  0  0  0  0
   -3.0761   -0.4351    0.8312 C   0  0  0  0  0  0  0  0  0  0  0  0
   -4.1905   -0.7319    1.5546 N   0  0  0  0  0  0  0  0  0  0  0  0
   -3.8060   -1.3256    2.6437 O   0  0  0  0  0  0  0  0  0  0  0  0
   -2.4942   -1.4334    2.6708 N   0  0  0  0  0  0  0  0  0  0  0  0
   -1.9869   -0.8896    1.5553 C   0  0  0  0  0  0  0  0  0  0  0  0
   -0.7474   -0.7084    1.0304 N   0  0  0  0  0  0  0  0  0  0  0  0
   -0.5503   -0.1145   -0.1454 C   0  0  0  0  0  0  0  0  0  0  0  0
    0.7313    0.0647   -0.6823 N   0  0  0  0  0  0  0  0  0  0  0  0
    1.9366   -0.3505   -0.0508 C   0  0  0  0  0  0  0  0  0  0  0  0
    1.9907   -0.9689    1.1693 C   0  0  0  0  0  0  0  0  0  0  0  0
    3.1806   -1.3636    1.7644 C   0  0  0  0  0  0  0  0  0  0  0  0
    4.4002   -1.1331    1.1136 C   0  0  0  0  0  0  0  0  0  0  0  0
    4.3420   -0.5143   -0.1077 C   0  0  0  0  0  0  0  0  0  0  0  0
    5.5951   -0.2230   -0.8832 C   0  0  0  0  0  0  0  0  0  0  0  0
    3.1500   -0.1216   -0.6985 C   0  0  0  0  0  0  0  0  0  0  0  0
    3.1088    0.5477   -2.0206 C   0  0  0  0  0  0  0  0  0  0  0  0
  1  2  1  0
  2  3  1  0
  3  4  1  0
  4  5  1  0
  3  6  1  0
  6  7  2  0
  7  8  1  0
  8  9  2  0
  9 10  1  0
 10 11  1  0
 11 12  2  0
 12 13  1  0
 13 14  2  0
 14 15  1  0
 15 16  1  0
 16 17  2  0
 17 18  1  0
 18 19  2  0
 19 20  1  0
 20 21  1  0
 20 22  2  0
 22 23  1  0
 14  6  1  0
 22 16  1  0
 12  8  1  0
M  END
>  <zinc_id>  (42) 
ZINC000000064886

>  <smiles>  (42) 
CCN(CC)c1nc2nonc2nc1Nc1cccc(C)c1C

$$$$

     RDKit          3D

 13 14  0  0  0  0  0  0  0  0999 V2000
   -4.4314   -0.2341   -0.7462 O   0  0  0  0  0  0  0  0  0  0  0  0
   -3.0659   -0.2028   -0.4537 C   0  0  0  0  0  0  0  0  0  0  0  0
   -2.1971   -1.1907   -0.8695 C   0  0  0  0  0  0  0  0  0  0  0  0
   -0.8501   -1.1646   -0.5839 C   0  0  0  0  0  0  0  0  0  0  0  0
   -0.3124   -0.1212    0.1472 C   0  0  0  0  0  0  0  0  0  0  0  0
    1.0688   -0.0511    0.4659 N   0  0  0  0  0  0  0  0  0  0  0  0
    1.9177   -1.1186   -0.0015 C   0  0  0  0  0  0  0  0  0  0  0  0
    3.3357   -0.7755    0.4019 C   0  0  0  0  0  0  0  0  0  0  0  0
    3.6772    0.5580    0.0181 N   0  0  0  0  0  0  0  0  0  0  0  0
    2.9243    1.5380    0.7621 C   0  0  0  0  0  0  0  0  0  0  0  0
    1.6019    1.0392    1.2241 C   0  0  0  0  0  0  0  0  0  0  0  0
   -1.1650    0.8975    0.5847 C   0  0  0  0  0  0  0  0  0  0  0  0
   -2.5037    0.8258    0.2734 C   0  0  0  0  0  0  0  0  0  0  0  0
  1  2  1  0
  2  3  2  0
  3  4  1  0
  4  5  2  0
  5  6  1  0
  6  7  1  0
  7  8  1  0
  8  9  1  0
  9 10  1  0
 10 11  1  0
  5 12  1  0
 12 13  2  0
 13  2  1  0
 11  6  1  0
M  END
>  <zinc_id>  (43) 
ZINC000000066007

>  <smiles>  (43) 
Oc1ccc(N2CCNCC2)cc1

$$$$

     RDKit          3D

 17 19  0  0  0  0  0  0  0  0999 V2000
    3.6357    2.1303   -0.5199 C   0  0  0  0  0  0  0  0  0  0  0  0
    3.0540    0.7879   -0.2635 C   0  0  0  0  0  0  0  0  0  0  0  0
    3.6926   -0.4184   -0.0816 C   0  0  0  0  0  0  0  0  0  0  0  0
    2.8033   -1.3494    0.1165 O   0  0  0  0  0  0  0  0  0  0  0  0
    1.5646   -0.8648    0.0843 C   0  0  0  0  0  0  0  0  0  0  0  0
    0.3232   -1.4606    0.2391 C   0  0  0  0  0  0  0  0  0  0  0  0
    0.2112   -2.9200    0.4961 C   0  0  0  0  0  0  0  0  0  0  0  0
   -0.8257   -0.6831    0.1525 C   0  0  0  0  0  0  0  0  0  0  0  0
   -2.0131   -1.2140    0.2938 O   0  0  0  0  0  0  0  0  0  0  0  0
   -3.1033   -0.4993    0.2157 C   0  0  0  0  0  0  0  0  0  0  0  0
   -4.2125   -1.0859    0.3633 O   0  0  0  0  0  0  0  0  0  0  0  0
   -3.1012    0.8623   -0.0199 C   0  0  0  0  0  0  0  0  0  0  0  0
   -1.8422    1.4378   -0.1718 C   0  0  0  0  0  0  0  0  0  0  0  0
   -1.7419    2.8974   -0.4284 C   0  0  0  0  0  0  0  0  0  0  0  0
   -0.7020    0.6667   -0.0860 C   0  0  0  0  0  0  0  0  0  0  0  0
    0.5446    1.2289   -0.2352 C   0  0  0  0  0  0  0  0  0  0  0  0
    1.7127    0.4841   -0.1551 C   0  0  0  0  0  0  0  0  0  0  0  0
  1  2  1  0
  2  3  2  0
  3  4  1  0
  4  5  1  0
  5  6  2  0
  6  7  1  0
  6  8  1  0
  8  9  1  0
  9 10  1  0
 10 11  2  0
 10 12  1  0
 12 13  2  0
 13 14  1  0
 13 15  1  0
 15 16  1  0
 16 17  2  0
 17  2  1  0
 17  5  1  0
 15  8  2  0
M  END
>  <zinc_id>  (44) 
ZINC000000070275

>  <smiles>  (44) 
Cc1coc2c(C)c3oc(=O)cc(C)c3cc12

$$$$

     RDKit          3D

 26 29  0  0  0  0  0  0  0  0999 V2000
    5.8766    0.2938   -0.2700 C   0  0  0  0  0  0  0  0  0  0  0  0
    4.8003    0.9508   -0.8621 O   0  0  0  0  0  0  0  0  0  0  0  0
    3.4692    0.4604   -0.7427 C   0  0  0  0  0  0  0  0  0  0  0  0
    3.2258   -0.6709   -0.0401 C   0  0  0  0  0  0  0  0  0  0  0  0
    1.9009   -1.1119    0.0480 C   0  0  0  0  0  0  0  0  0  0  0  0
    0.8747   -0.4701   -0.5264 C   0  0  0  0  0  0  0  0  0  0  0  0
   -0.6234   -0.8962   -0.4804 C   0  0  2  0  0  0  0  0  0  0  0  0
   -1.3264    0.5370   -0.3523 C   0  0  0  0  0  0  0  0  0  0  0  0
   -2.3993    0.8922   -1.0989 C   0  0  0  0  0  0  0  0  0  0  0  0
   -3.1893    0.1705   -2.1397 C   0  0  0  0  0  0  0  0  0  0  0  0
   -2.6951    2.1645   -0.7166 N   0  0  0  0  0  0  0  0  0  0  0  0
   -1.8110    2.5681    0.2475 C   0  0  0  0  0  0  0  0  0  0  0  0
   -1.7087    3.7622    0.9314 C   0  0  0  0  0  0  0  0  0  0  0  0
   -0.7071    3.9349    1.8788 C   0  0  0  0  0  0  0  0  0  0  0  0
    0.1871    2.9064    2.1342 C   0  0  0  0  0  0  0  0  0  0  0  0
    0.0398    1.7384    1.4244 C   0  0  0  0  0  0  0  0  0  0  0  0
   -0.9364    1.5216    0.4773 C   0  0  0  0  0  0  0  0  0  0  0  0
   -0.7148   -1.2558    1.0728 N   0  0  0  0  0  0  0  0  0  0  0  0
    0.2492   -2.2914    1.2557 C   0  0  0  0  0  0  0  0  0  0  0  0
   -0.1026   -3.6132    0.6743 C   0  0  0  0  0  0  0  0  0  0  0  0
   -1.5669   -3.7376    0.3156 C   0  0  0  0  0  0  0  0  0  0  0  0
   -2.0462   -5.1759    0.3494 C   0  0  0  0  0  0  0  0  0  0  0  0
   -2.3892   -2.9512    1.2827 C   0  0  0  0  0  0  0  0  0  0  0  0
   -2.0218   -1.5243    1.4158 C   0  0  0  0  0  0  0  0  0  0  0  0
    1.1619    0.6471   -1.2132 C   0  0  0  0  0  0  0  0  0  0  0  0
    2.4526    1.1506   -1.3473 C   0  0  0  0  0  0  0  0  0  0  0  0
  1  2  1  0
  2  3  1  0
  3  4  2  0
  4  5  1  0
  5  6  2  0
  7  6  1  1
  7  8  1  0
  8  9  2  0
  9 10  1  0
  9 11  1  0
 11 12  1  0
 12 13  2  0
 13 14  1  0
 14 15  2  0
 15 16  1  0
 16 17  2  0
  7 18  1  0
 18 19  1  0
 19 20  1  0
 20 21  1  0
 21 22  1  0
 21 23  1  0
 23 24  1  0
  6 25  1  0
 25 26  2  0
 26  3  1  0
 17  8  1  0
 24 18  1  0
 17 12  1  0
M  END
>  <zinc_id>  (45) 
ZINC000000072029

>  <smiles>  (45) 
COc1ccc([C@H](c2c(C)[nH]c3ccccc23)N2CCC(C)CC2)cc1

$$$$

     RDKit          3D

 22 24  0  0  0  0  0  0  0  0999 V2000
    1.8874   -2.0155    2.1367 C   0  0  0  0  0  0  0  0  0  0  0  0
    2.0457   -0.5554    1.4148 C   0  0  1  0  0  0  0  0  0  0  0  0
    2.4318   -1.2006   -0.0410 C   0  0  0  0  0  0  0  0  0  0  0  0
    3.8205   -1.3766    0.1891 N   0  0  0  0  0  0  0  0  0  0  0  0
    4.6071   -1.9509   -0.8106 C   0  0  0  0  0  0  0  0  0  0  0  0
    5.9482   -1.3304   -1.0164 C   0  0  0  0  0  0  0  0  0  0  0  0
    5.9561    0.1639   -0.9324 C   0  0  0  0  0  0  0  0  0  0  0  0
    4.7983    0.7345   -0.1660 C   0  0  0  0  0  0  0  0  0  0  0  0
    4.3602   -0.2534    0.8905 C   0  0  0  0  0  0  0  0  0  0  0  0
    0.5625   -0.3960    1.1006 O   0  0  0  0  0  0  0  0  0  0  0  0
    0.1297    0.7028    0.4694 C   0  0  0  0  0  0  0  0  0  0  0  0
    0.9621    1.5962    0.1417 O   0  0  0  0  0  0  0  0  0  0  0  0
   -1.2808    0.8834    0.1560 C   0  0  0  0  0  0  0  0  0  0  0  0
   -1.7336    2.0009   -0.4889 C   0  0  0  0  0  0  0  0  0  0  0  0
   -3.0886    2.1619   -0.7830 C   0  0  0  0  0  0  0  0  0  0  0  0
   -3.9900    1.1906   -0.4244 C   0  0  0  0  0  0  0  0  0  0  0  0
   -3.5304    0.0654    0.2254 C   0  0  0  0  0  0  0  0  0  0  0  0
   -2.1704   -0.0880    0.5164 C   0  0  0  0  0  0  0  0  0  0  0  0
   -4.4496   -0.8964    0.5761 O   0  0  0  0  0  0  0  0  0  0  0  0
   -5.8168   -0.8582    0.2294 C   0  0  0  0  0  0  0  0  0  0  0  0
   -6.0920    0.1041   -0.9004 C   0  0  0  0  0  0  0  0  0  0  0  0
   -5.3574    1.3176   -0.7031 O   0  0  0  0  0  0  0  0  0  0  0  0
  2  1  1  1
  2  3  1  0
  3  4  1  0
  4  5  1  0
  5  6  1  0
  6  7  1  0
  7  8  1  0
  8  9  1  0
  2 10  1  0
 10 11  1  0
 11 12  2  0
 11 13  1  0
 13 14  2  0
 14 15  1  0
 15 16  2  0
 16 17  1  0
 17 18  2  0
 17 19  1  0
 19 20  1  0
 20 21  1  0
 21 22  1  0
  9  4  1  0
 18 13  1  0
 22 16  1  0
M  END
>  <zinc_id>  (46) 
ZINC000000073940

>  <smiles>  (46) 
C[C@@H](CN1CCCCC1)OC(=O)c1ccc2c(c1)OCCO2

$$$$

     RDKit          3D

 24 26  0  0  0  0  0  0  0  0999 V2000
   -1.8667   -1.7372    0.0319 C   0  0  0  0  0  0  0  0  0  0  0  0
   -0.3360   -1.8354    0.0394 C   0  0  0  0  0  0  0  0  0  0  0  0
    0.2421   -0.8182   -0.4912 C   0  0  0  0  0  0  0  0  0  0  0  0
   -0.5084    0.3121   -1.0594 C   0  0  0  0  0  0  0  0  0  0  0  0
    0.0132    1.3022   -1.5753 O   0  0  0  0  0  0  0  0  0  0  0  0
   -1.8968    0.2631   -1.0129 N   0  0  0  0  0  0  0  0  0  0  0  0
   -2.7484    1.2796   -1.5212 C   0  0  0  0  0  0  0  0  0  0  0  0
   -4.1203    1.2135   -1.4662 C   0  0  0  0  0  0  0  0  0  0  0  0
   -4.9231    2.2406   -1.9807 C   0  0  0  0  0  0  0  0  0  0  0  0
   -4.3226    3.3394   -2.5535 C   0  0  0  0  0  0  0  0  0  0  0  0
   -2.9710    3.4304   -2.6209 C   0  0  0  0  0  0  0  0  0  0  0  0
   -2.2069    2.4000   -2.1042 C   0  0  0  0  0  0  0  0  0  0  0  0
    1.7771   -0.6881   -0.4196 C   0  0  1  0  0  0  0  0  0  0  0  0
    2.0123   -0.0280    0.9832 C   0  0  0  0  0  0  0  0  0  0  0  0
    1.2157    0.9995    1.3816 C   0  0  0  0  0  0  0  0  0  0  0  0
    1.3983    1.6084    2.6420 C   0  0  0  0  0  0  0  0  0  0  0  0
    2.4046    1.1325    3.4548 C   0  0  0  0  0  0  0  0  0  0  0  0
    3.2037    0.1011    3.0539 C   0  0  0  0  0  0  0  0  0  0  0  0
    2.9960   -0.4781    1.8014 C   0  0  0  0  0  0  0  0  0  0  0  0
    3.8282   -1.4908    1.4635 F   0  0  0  0  0  0  0  0  0  0  0  0
    2.3440   -2.0168   -0.2907 N   0  0  0  0  0  0  0  0  0  0  0  0
    1.6739   -3.0617    0.2918 C   0  0  0  0  0  0  0  0  0  0  0  0
    2.5371   -4.4131    0.7749 S   0  0  0  0  0  0  0  0  0  0  0  0
    0.2542   -3.0549    0.5020 N   0  0  0  0  0  0  0  0  0  0  0  0
  1  2  1  0
  2  3  2  0
  3  4  1  0
  4  5  2  0
  4  6  1  0
  6  7  1  0
  7  8  2  0
  8  9  1  0
  9 10  2  0
 10 11  1  0
 11 12  2  0
  3 13  1  0
 13 14  1  1
 14 15  2  0
 15 16  1  0
 16 17  2  0
 17 18  1  0
 18 19  2  0
 19 20  1  0
 13 21  1  0
 21 22  1  0
 22 23  2  0
 22 24  1  0
 24  2  1  0
 12  7  1  0
 19 14  1  0
M  END
>  <zinc_id>  (47) 
ZINC000000083500

>  <smiles>  (47) 
CC1=C(C(=O)Nc2ccccc2)[C@@H](c2ccccc2F)NC(=S)N1

$$$$

     RDKit          3D

 20 22  0  0  0  0  0  0  0  0999 V2000
    5.8928    2.4586    0.5788 C   0  0  0  0  0  0  0  0  0  0  0  0
    5.5710    1.2435   -0.0708 O   0  0  0  0  0  0  0  0  0  0  0  0
    4.2172    0.8690   -0.0493 C   0  0  0  0  0  0  0  0  0  0  0  0
    3.2466    1.6301    0.5646 C   0  0  0  0  0  0  0  0  0  0  0  0
    1.9128    1.2836    0.5988 C   0  0  0  0  0  0  0  0  0  0  0  0
    1.5098    0.1177   -0.0078 C   0  0  0  0  0  0  0  0  0  0  0  0
    0.1383   -0.2966   -0.0063 C   0  0  0  0  0  0  0  0  0  0  0  0
   -0.9011    0.5612   -0.2794 C   0  0  0  0  0  0  0  0  0  0  0  0
   -2.1909    0.0748   -0.2554 C   0  0  0  0  0  0  0  0  0  0  0  0
   -3.2835    0.8839   -0.5208 C   0  0  0  0  0  0  0  0  0  0  0  0
   -4.5723    0.4140   -0.5005 C   0  0  0  0  0  0  0  0  0  0  0  0
   -5.9719    1.6562   -0.8886 Br  0  0  0  0  0  0  0  0  0  0  0  0
   -4.8171   -0.9036   -0.2093 C   0  0  0  0  0  0  0  0  0  0  0  0
   -3.7496   -1.7397    0.0607 C   0  0  0  0  0  0  0  0  0  0  0  0
   -2.4441   -1.2500    0.0370 C   0  0  0  0  0  0  0  0  0  0  0  0
   -1.4201   -2.0323    0.2913 O   0  0  0  0  0  0  0  0  0  0  0  0
   -0.1810   -1.6060    0.2778 C   0  0  0  0  0  0  0  0  0  0  0  0
    0.7744   -2.4052    0.5313 O   0  0  0  0  0  0  0  0  0  0  0  0
    2.4674   -0.6521   -0.6245 C   0  0  0  0  0  0  0  0  0  0  0  0
    3.8014   -0.3069   -0.6594 C   0  0  0  0  0  0  0  0  0  0  0  0
  1  2  1  0
  2  3  1  0
  3  4  2  0
  4  5  1  0
  5  6  2  0
  6  7  1  0
  7  8  2  0
  8  9  1  0
  9 10  2  0
 10 11  1  0
 11 12  1  0
 11 13  2  0
 13 14  1  0
 14 15  2  0
 15 16  1  0
 16 17  1  0
 17 18  2  0
  6 19  1  0
 19 20  2  0
 20  3  1  0
 17  7  1  0
 15  9  1  0
M  END
>  <zinc_id>  (48) 
ZINC000000087013

>  <smiles>  (48) 
COc1ccc(-c2cc3cc(Br)ccc3oc2=O)cc1

$$$$

     RDKit          3D

 15 16  0  0  0  0  0  0  0  0999 V2000
   -3.0667   -1.2391    1.5564 C   0  0  0  0  0  0  0  0  0  0  0  0
   -2.6465   -0.0436    0.7571 C   0  0  0  0  0  0  0  0  0  0  0  0
   -3.5290    0.9573    0.4293 C   0  0  0  0  0  0  0  0  0  0  0  0
   -3.0808    2.0268   -0.3059 C   0  0  0  0  0  0  0  0  0  0  0  0
   -1.7663    2.0986   -0.7104 C   0  0  0  0  0  0  0  0  0  0  0  0
   -0.8736    1.1031   -0.3885 C   0  0  0  0  0  0  0  0  0  0  0  0
   -1.3279    0.0318    0.3493 C   0  0  0  0  0  0  0  0  0  0  0  0
   -0.4118   -1.0284    0.7018 N   0  0  0  0  0  0  0  0  0  0  0  0
    0.9431   -0.9374    0.2749 C   0  0  0  0  0  0  0  0  0  0  0  0
    1.8328   -1.8995    0.5786 N   0  0  0  0  0  0  0  0  0  0  0  0
    3.1235   -1.8632    0.2006 C   0  0  0  0  0  0  0  0  0  0  0  0
    3.5439   -0.8047   -0.5208 N   0  0  0  0  0  0  0  0  0  0  0  0
    2.6931    0.1855   -0.8513 C   0  0  0  0  0  0  0  0  0  0  0  0
    3.1548    1.3109   -1.6223 N   0  0  0  0  0  0  0  0  0  0  0  0
    1.4115    0.1017   -0.4487 N   0  0  0  0  0  0  0  0  0  0  0  0
  1  2  1  0
  2  3  2  0
  3  4  1  0
  4  5  2  0
  5  6  1  0
  6  7  2  0
  7  8  1  0
  8  9  1  0
  9 10  2  0
 10 11  1  0
 11 12  2  0
 12 13  1  0
 13 14  1  0
 13 15  2  0
  7  2  1  0
 15  9  1  0
M  END
>  <zinc_id>  (49) 
ZINC000000089418

>  <smiles>  (49) 
Cc1ccccc1Nc1ncnc(N)n1

$$$$

     RDKit          3D

 18 19  0  0  0  0  0  0  0  0999 V2000
   -3.2828   -2.7742    1.0333 C   0  0  0  0  0  0  0  0  0  0  0  0
   -2.9136   -1.4420    0.4741 C   0  0  0  0  0  0  0  0  0  0  0  0
   -1.9905   -0.6269    1.3729 C   0  0  0  0  0  0  0  0  0  0  0  0
   -1.7337    0.6699    0.6574 C   0  0  0  0  0  0  0  0  0  0  0  0
   -2.3327    1.8351    0.9734 N   0  0  0  0  0  0  0  0  0  0  0  0
   -1.9088    2.7715    0.1634 N   0  0  0  0  0  0  0  0  0  0  0  0
   -1.0182    2.2599   -0.7121 C   0  0  0  0  0  0  0  0  0  0  0  0
   -0.3654    2.9796   -1.7163 O   0  0  0  0  0  0  0  0  0  0  0  0
   -0.9022    0.9176   -0.4010 C   0  0  0  0  0  0  0  0  0  0  0  0
   -0.0587   -0.0408   -1.0740 C   0  0  0  0  0  0  0  0  0  0  0  0
    1.1882   -0.4515   -0.4537 C   0  0  0  0  0  0  0  0  0  0  0  0
    1.7884    0.1432    0.6494 C   0  0  0  0  0  0  0  0  0  0  0  0
    0.9983    1.5258    1.3776 Cl  0  0  0  0  0  0  0  0  0  0  0  0
    2.9809   -0.3626    1.1321 C   0  0  0  0  0  0  0  0  0  0  0  0
    3.6085   -1.4432    0.5608 C   0  0  0  0  0  0  0  0  0  0  0  0
    3.0050   -2.0351   -0.5420 C   0  0  0  0  0  0  0  0  0  0  0  0
    1.8113   -1.5582   -1.0555 C   0  0  0  0  0  0  0  0  0  0  0  0
    1.1257   -2.3681   -2.4396 Cl  0  0  0  0  0  0  0  0  0  0  0  0
  1  2  1  0
  2  3  1  0
  3  4  1  0
  4  5  1  0
  5  6  1  0
  6  7  2  0
  7  8  1  0
  7  9  1  0
  9 10  1  0
 10 11  1  0
 11 12  2  0
 12 13  1  0
 12 14  1  0
 14 15  2  0
 15 16  1  0
 16 17  2  0
 17 18  1  0
  9  4  2  0
 17 11  1  0
M  END
>  <zinc_id>  (50) 
ZINC000000090149

>  <smiles>  (50) 
CCCc1[nH]nc(O)c1Cc1c(Cl)cccc1Cl

$$$$

     RDKit          3D

 21 23  0  0  0  0  0  0  0  0999 V2000
   -4.0227    1.4841   -2.2202 C   0  0  0  0  0  0  0  0  0  0  0  0
   -4.1583    1.4525   -0.6921 C   0  0  0  0  0  0  0  0  0  0  0  0
   -2.6383    1.7340   -0.2648 C   0  0  1  0  0  0  0  0  0  0  0  0
   -2.8677    1.6847    1.3095 C   0  0  0  0  0  0  0  0  0  0  0  0
   -2.1106    0.1737   -0.5873 C   0  0  1  0  0  0  0  0  0  0  0  0
   -0.6611    0.4573   -0.1618 N   0  0  0  0  0  0  0  0  0  0  0  0
    0.1927   -0.6725   -0.2833 C   0  0  0  0  0  0  0  0  0  0  0  0
   -0.2654   -1.8481   -0.7297 N   0  0  0  0  0  0  0  0  0  0  0  0
    0.4512   -2.9293   -0.8700 C   0  0  0  0  0  0  0  0  0  0  0  0
    1.7537   -2.8595   -0.5407 N   0  0  0  0  0  0  0  0  0  0  0  0
    2.2625   -1.6969   -0.0861 C   0  0  0  0  0  0  0  0  0  0  0  0
    3.8400   -1.2513    0.4162 S   0  0  0  0  0  0  0  0  0  0  0  0
    3.5653    0.3727    0.8170 C   0  0  0  0  0  0  0  0  0  0  0  0
    2.2395    0.5371    0.5500 C   0  0  0  0  0  0  0  0  0  0  0  0
    1.5590   -0.5370    0.0800 C   0  0  0  0  0  0  0  0  0  0  0  0
    1.9663    1.9835    0.9120 C   0  0  0  0  0  0  0  0  0  0  0  0
    3.2711    2.6988    0.7696 C   0  0  0  0  0  0  0  0  0  0  0  0
    4.2031    1.6171    1.3167 C   0  0  0  0  0  0  0  0  0  0  0  0
   -2.6402   -0.5824    0.6792 C   0  0  0  0  0  0  0  0  0  0  0  0
   -1.9797   -0.8177    1.6676 O   0  0  0  0  0  0  0  0  0  0  0  0
   -3.9608   -1.0009    0.6405 O   0  0  0  0  0  0  0  0  0  0  0  0
  1  2  1  0
  2  3  1  0
  3  4  1  1
  3  5  1  0
  5  6  1  1
  6  7  1  0
  7  8  2  0
  8  9  1  0
  9 10  2  0
 10 11  1  0
 11 12  1  0
 12 13  1  0
 13 14  2  0
 14 15  1  0
 14 16  1  0
 16 17  1  0
 17 18  1  0
  5 19  1  0
 19 20  2  0
 19 21  1  0
 15  7  1  0
 15 11  2  0
 18 13  1  0
M  END
>  <zinc_id>  (51) 
ZINC000000090345

>  <smiles>  (51) 
CC[C@@H](C)[C@@H](Nc1ncnc2sc3c(c12)CCC3)C(=O)O

$$$$

     RDKit          3D

 23 25  0  0  0  0  0  0  0  0999 V2000
    7.4680   -0.1393    0.1376 O   0  0  0  0  0  0  0  0  0  0  0  0
    6.5081   -0.1812   -0.6798 C   0  0  0  0  0  0  0  0  0  0  0  0
    6.7840   -0.2865   -2.0262 O   0  0  0  0  0  0  0  0  0  0  0  0
    5.1336   -0.1174   -0.1832 C   0  0  0  0  0  0  0  0  0  0  0  0
    4.1130   -0.1659   -1.1052 C   0  0  0  0  0  0  0  0  0  0  0  0
    2.7866   -0.1079   -0.6734 C   0  0  0  0  0  0  0  0  0  0  0  0
    2.5491   -0.0042    0.6604 C   0  0  0  0  0  0  0  0  0  0  0  0
    1.2356    0.0599    1.1779 N   0  0  0  0  0  0  0  0  0  0  0  0
    0.0983    0.0149    0.2726 C   0  0  0  0  0  0  0  0  0  0  0  0
   -1.1804    0.0628    0.5809 N   0  0  0  0  0  0  0  0  0  0  0  0
   -2.0703    0.0101   -0.3636 C   0  0  0  0  0  0  0  0  0  0  0  0
   -3.5374    0.0576   -0.1085 C   0  0  0  0  0  0  0  0  0  0  0  0
   -4.4373   -0.0016   -1.1432 C   0  0  0  0  0  0  0  0  0  0  0  0
   -5.7969    0.0428   -0.9027 C   0  0  0  0  0  0  0  0  0  0  0  0
   -6.3109    0.1474    0.3728 C   0  0  0  0  0  0  0  0  0  0  0  0
   -7.6876    0.1901    0.5863 O   0  0  0  0  0  0  0  0  0  0  0  0
   -5.4066    0.2069    1.4117 C   0  0  0  0  0  0  0  0  0  0  0  0
   -4.0423    0.1623    1.1696 C   0  0  0  0  0  0  0  0  0  0  0  0
   -3.1096    0.2217    2.2155 O   0  0  0  0  0  0  0  0  0  0  0  0
   -1.6081   -0.0948   -1.6541 C   0  0  0  0  0  0  0  0  0  0  0  0
    0.0821   -0.1110   -1.4283 S   0  0  0  0  0  0  0  0  0  0  0  0
    3.5643    0.0449    1.5892 C   0  0  0  0  0  0  0  0  0  0  0  0
    4.8645   -0.0116    1.1702 C   0  0  0  0  0  0  0  0  0  0  0  0
  1  2  2  0
  2  3  1  0
  2  4  1  0
  4  5  2  0
  5  6  1  0
  6  7  2  0
  7  8  1  0
  8  9  1  0
  9 10  2  0
 10 11  1  0
 11 12  1  0
 12 13  2  0
 13 14  1  0
 14 15  2  0
 15 16  1  0
 15 17  1  0
 17 18  2  0
 18 19  1  0
 11 20  2  0
 20 21  1  0
  7 22  1  0
 22 23  2  0
 23  4  1  0
 21  9  1  0
 18 12  1  0
M  END
>  <zinc_id>  (52) 
ZINC000000090758

>  <smiles>  (52) 
O=C(O)c1ccc(Nc2nc(-c3ccc(O)cc3O)cs2)cc1

$$$$

     RDKit          3D

 25 27  0  0  0  0  0  0  0  0999 V2000
    0.1581   -0.5013    2.0314 O   0  0  0  0  0  0  0  0  0  0  0  0
   -0.2630   -1.2069    1.1072 C   0  0  0  0  0  0  0  0  0  0  0  0
   -1.6098   -1.8205    1.3630 C   0  0  0  0  0  0  0  0  0  0  0  0
   -2.0912   -2.2173   -0.2149 C   0  0  2  0  0  0  0  0  0  0  0  0
   -1.9252   -0.7777   -0.7572 N   0  0  0  0  0  0  0  0  0  0  0  0
   -2.8367    0.1695   -0.8735 C   0  0  0  0  0  0  0  0  0  0  0  0
   -2.5284    1.4004   -1.4211 C   0  0  0  0  0  0  0  0  0  0  0  0
   -3.4423    2.4190   -1.5785 C   0  0  0  0  0  0  0  0  0  0  0  0
   -4.7444    2.2056   -1.1667 C   0  0  0  0  0  0  0  0  0  0  0  0
   -5.0569    0.9951   -0.6288 C   0  0  0  0  0  0  0  0  0  0  0  0
   -4.1069   -0.0583   -0.4719 C   0  0  0  0  0  0  0  0  0  0  0  0
   -4.5237   -1.2823    0.0678 N   0  0  0  0  0  0  0  0  0  0  0  0
   -3.6340   -2.2752    0.1941 C   0  0  0  0  0  0  0  0  0  0  0  0
   -3.8452   -3.4581    0.6615 O   0  0  0  0  0  0  0  0  0  0  0  0
    0.4739   -1.3781   -0.0736 N   0  0  0  0  0  0  0  0  0  0  0  0
    1.7224   -0.6631   -0.1402 C   0  0  0  0  0  0  0  0  0  0  0  0
    2.4562   -0.4674    1.0136 C   0  0  0  0  0  0  0  0  0  0  0  0
    3.6353    0.2707    1.0232 C   0  0  0  0  0  0  0  0  0  0  0  0
    4.0983    0.8368   -0.1604 C   0  0  0  0  0  0  0  0  0  0  0  0
    5.3305    1.6279   -0.1341 C   0  0  0  0  0  0  0  0  0  0  0  0
    6.3412    0.8934   -0.7510 F   0  0  0  0  0  0  0  0  0  0  0  0
    5.6920    1.9259    1.1424 F   0  0  0  0  0  0  0  0  0  0  0  0
    5.1323    2.8119   -0.8703 F   0  0  0  0  0  0  0  0  0  0  0  0
    3.3690    0.6454   -1.3081 C   0  0  0  0  0  0  0  0  0  0  0  0
    2.1985   -0.0955   -1.2990 C   0  0  0  0  0  0  0  0  0  0  0  0
  1  2  2  0
  2  3  1  0
  4  3  1  1
  4  5  1  0
  5  6  1  0
  6  7  2  0
  7  8  1  0
  8  9  2  0
  9 10  1  0
 10 11  2  0
 11 12  1  0
 12 13  1  0
 13 14  2  0
  2 15  1  0
 15 16  1  0
 16 17  2  0
 17 18  1  0
 18 19  2  0
 19 20  1  0
 20 21  1  0
 20 22  1  0
 20 23  1  0
 19 24  1  0
 24 25  2  0
 13  4  1  0
 25 16  1  0
 11  6  1  0
M  END
>  <zinc_id>  (53) 
ZINC000000091369

>  <smiles>  (53) 
O=C(C[C@@H]1Nc2ccccc2NC1=O)Nc1ccc(C(F)(F)F)cc1

$$$$

     RDKit          3D

 19 22  0  0  0  0  0  0  0  0999 V2000
    2.2660   -2.9160    0.0766 C   0  0  0  0  0  0  0  0  0  0  0  0
    0.8730   -2.3382   -0.0298 C   0  0  0  0  0  0  0  0  0  0  0  0
   -0.6112   -3.1257   -0.2477 S   0  0  0  0  0  0  0  0  0  0  0  0
   -1.6332   -1.7648   -0.2645 C   0  0  0  0  0  0  0  0  0  0  0  0
   -2.9848   -1.5701   -0.4138 N   0  0  0  0  0  0  0  0  0  0  0  0
   -3.5479   -0.3507   -0.4062 C   0  0  0  0  0  0  0  0  0  0  0  0
   -2.7056    0.7076   -0.2425 N   0  0  0  0  0  0  0  0  0  0  0  0
   -2.9824    2.0022   -0.1986 N   0  0  0  0  0  0  0  0  0  0  0  0
   -1.8586    2.6631   -0.0291 N   0  0  0  0  0  0  0  0  0  0  0  0
   -0.8637    1.8051    0.0375 N   0  0  0  0  0  0  0  0  0  0  0  0
   -1.3953    0.5674   -0.0954 C   0  0  0  0  0  0  0  0  0  0  0  0
   -0.7778   -0.7092   -0.0983 C   0  0  0  0  0  0  0  0  0  0  0  0
    0.5446   -1.0086    0.0270 C   0  0  0  0  0  0  0  0  0  0  0  0
    1.6101    0.0273    0.1999 C   0  0  0  0  0  0  0  0  0  0  0  0
    1.9497    0.8514   -0.8687 C   0  0  0  0  0  0  0  0  0  0  0  0
    2.9329    1.8143   -0.7629 C   0  0  0  0  0  0  0  0  0  0  0  0
    3.6047    1.9784    0.4246 C   0  0  0  0  0  0  0  0  0  0  0  0
    3.2932    1.1665    1.5261 C   0  0  0  0  0  0  0  0  0  0  0  0
    2.2862    0.2000    1.3657 C   0  0  0  0  0  0  0  0  0  0  0  0
  1  2  1  0
  2  3  1  0
  3  4  1  0
  4  5  1  0
  5  6  2  0
  6  7  1  0
  7  8  1  0
  8  9  2  0
  9 10  1  0
 10 11  2  0
 11 12  1  0
 12 13  1  0
 13 14  1  0
 14 15  2  0
 15 16  1  0
 16 17  2  0
 17 18  1  0
 18 19  2  0
 13  2  2  0
 19 14  1  0
 12  4  2  0
 11  7  1  0
M  END
>  <zinc_id>  (54) 
ZINC000000091945

>  <smiles>  (54) 
Cc1sc2ncn3nnnc3c2c1-c1ccccc1

$$$$

     RDKit          3D

 21 22  0  0  0  0  0  0  0  0999 V2000
   -5.1502    2.4577   -0.6851 C   0  0  0  0  0  0  0  0  0  0  0  0
   -3.7406    1.8950   -0.5285 C   0  0  0  0  0  0  0  0  0  0  0  0
   -3.1563    2.4536    0.7416 C   0  0  0  0  0  0  0  0  0  0  0  0
   -3.8546    0.4210   -0.5086 C   0  0  0  0  0  0  0  0  0  0  0  0
   -5.0758   -0.2332   -0.6198 C   0  0  0  0  0  0  0  0  0  0  0  0
   -5.1738   -1.6086   -0.6003 C   0  0  0  0  0  0  0  0  0  0  0  0
   -4.0236   -2.3565   -0.4665 C   0  0  0  0  0  0  0  0  0  0  0  0
   -2.8157   -1.6990   -0.3568 C   0  0  0  0  0  0  0  0  0  0  0  0
   -2.7003   -0.3227   -0.3744 C   0  0  0  0  0  0  0  0  0  0  0  0
   -1.4552    0.3563   -0.2614 N   0  0  0  0  0  0  0  0  0  0  0  0
   -0.2726   -0.4193   -0.1236 C   0  0  0  0  0  0  0  0  0  0  0  0
   -0.3486   -1.6743   -0.1045 O   0  0  0  0  0  0  0  0  0  0  0  0
    1.0726    0.1891    0.0012 C   0  0  0  0  0  0  0  0  0  0  0  0
    2.0819   -0.7924    0.1256 O   0  0  0  0  0  0  0  0  0  0  0  0
    3.4215   -0.4737    0.2560 C   0  0  0  0  0  0  0  0  0  0  0  0
    4.3251   -1.5069    0.3706 C   0  0  0  0  0  0  0  0  0  0  0  0
    5.6918   -1.3007    0.5062 C   0  0  0  0  0  0  0  0  0  0  0  0
    6.1226    0.0210    0.5221 C   0  0  0  0  0  0  0  0  0  0  0  0
    5.2479    1.0769    0.4099 C   0  0  0  0  0  0  0  0  0  0  0  0
    5.9047    2.6962    0.4426 Cl  0  0  0  0  0  0  0  0  0  0  0  0
    3.8992    0.8205    0.2772 C   0  0  0  0  0  0  0  0  0  0  0  0
  1  2  1  0
  2  3  1  0
  2  4  1  0
  4  5  2  0
  5  6  1  0
  6  7  2  0
  7  8  1  0
  8  9  2  0
  9 10  1  0
 10 11  1  0
 11 12  2  0
 11 13  1  0
 13 14  1  0
 14 15  1  0
 15 16  2  0
 16 17  1  0
 17 18  2  0
 18 19  1  0
 19 20  1  0
 19 21  2  0
  9  4  1  0
 21 15  1  0
M  END
>  <zinc_id>  (55) 
ZINC000000094091

>  <smiles>  (55) 
CC(C)c1ccccc1NC(=O)COc1cccc(Cl)c1

$$$$

     RDKit          3D

 23 24  0  0  0  0  0  0  0  0999 V2000
    6.6501    0.1823   -0.6531 C   0  0  0  0  0  0  0  0  0  0  0  0
    5.3215    0.0047    0.0091 C   0  0  0  0  0  0  0  0  0  0  0  0
    5.2591   -0.1954    1.3931 C   0  0  0  0  0  0  0  0  0  0  0  0
    4.0428   -0.3629    2.0088 C   0  0  0  0  0  0  0  0  0  0  0  0
    2.8846   -0.3336    1.2614 C   0  0  0  0  0  0  0  0  0  0  0  0
    2.8903   -0.1407   -0.1058 C   0  0  0  0  0  0  0  0  0  0  0  0
    1.6889   -0.1020   -0.8629 N   0  0  0  0  0  0  0  0  0  0  0  0
    0.4112   -0.0281   -0.2369 C   0  0  0  0  0  0  0  0  0  0  0  0
    0.3893    0.0549    1.3903 S   0  0  0  0  0  0  0  0  0  0  0  0
   -0.7845    0.0014   -0.9745 N   0  0  0  0  0  0  0  0  0  0  0  0
   -2.0840    0.0743   -0.4249 C   0  0  0  0  0  0  0  0  0  0  0  0
   -2.6666    1.2948   -0.1062 C   0  0  0  0  0  0  0  0  0  0  0  0
   -1.8246    2.5009   -0.3498 C   0  0  0  0  0  0  0  0  0  0  0  0
   -2.5249    3.7895   -0.0900 C   0  0  0  0  0  0  0  0  0  0  0  0
   -1.2885    2.4055   -1.7430 C   0  0  0  0  0  0  0  0  0  0  0  0
   -3.9256    1.3363    0.3941 C   0  0  0  0  0  0  0  0  0  0  0  0
   -4.6666    0.2143    0.6054 C   0  0  0  0  0  0  0  0  0  0  0  0
   -4.1084   -0.9943    0.2968 C   0  0  0  0  0  0  0  0  0  0  0  0
   -2.8089   -1.0564   -0.2206 C   0  0  0  0  0  0  0  0  0  0  0  0
   -2.2585   -2.4237   -0.5379 C   0  0  0  0  0  0  0  0  0  0  0  0
   -3.3961   -3.4449   -0.5067 C   0  0  0  0  0  0  0  0  0  0  0  0
   -1.3319   -2.8009    0.6185 C   0  0  0  0  0  0  0  0  0  0  0  0
    4.1314    0.0241   -0.6880 C   0  0  0  0  0  0  0  0  0  0  0  0
  1  2  1  0
  2  3  2  0
  3  4  1  0
  4  5  2  0
  5  6  1  0
  6  7  1  0
  7  8  1  0
  8  9  2  0
  8 10  1  0
 10 11  1  0
 11 12  2  0
 12 13  1  0
 13 14  1  0
 13 15  1  0
 12 16  1  0
 16 17  2  0
 17 18  1  0
 18 19  2  0
 19 20  1  0
 20 21  1  0
 20 22  1  0
  6 23  2  0
 23  2  1  0
 19 11  1  0
M  END
>  <zinc_id>  (56) 
ZINC000000098262

>  <smiles>  (56) 
Cc1cccc(NC(=S)Nc2c(C(C)C)cccc2C(C)C)c1

$$$$

     RDKit          3D

 17 18  0  0  0  0  0  0  0  0999 V2000
    3.4783   -1.0255   -0.4748 C   0  0  0  0  0  0  0  0  0  0  0  0
    4.1395    0.2622   -0.7556 C   0  0  0  0  0  0  0  0  0  0  0  0
    3.5882    1.3837    0.3187 C   0  0  2  0  0  0  0  0  0  0  0  0
    4.1112    0.5489    1.6442 C   0  0  0  0  0  0  0  0  0  0  0  0
    2.0758    0.8529    0.3154 C   0  0  0  0  0  0  0  0  0  0  0  0
    1.6370   -0.1225    1.0770 C   0  0  0  0  0  0  0  0  0  0  0  0
    0.3225   -0.5187    1.0134 C   0  0  0  0  0  0  0  0  0  0  0  0
   -0.5286    0.1358    0.1279 C   0  0  0  0  0  0  0  0  0  0  0  0
   -1.8973   -0.3010    0.0943 N   0  0  0  0  0  0  0  0  0  0  0  0
   -3.0283    0.5286   -0.1115 C   0  0  0  0  0  0  0  0  0  0  0  0
   -3.0269    1.7636   -0.2951 O   0  0  0  0  0  0  0  0  0  0  0  0
   -4.1924   -0.3226   -0.0695 C   0  0  0  0  0  0  0  0  0  0  0  0
   -3.8110   -1.5904    0.1467 C   0  0  0  0  0  0  0  0  0  0  0  0
   -2.3837   -1.6269    0.2563 C   0  0  0  0  0  0  0  0  0  0  0  0
   -1.6570   -2.6308    0.4587 O   0  0  0  0  0  0  0  0  0  0  0  0
   -0.0714    1.1592   -0.6716 C   0  0  0  0  0  0  0  0  0  0  0  0
    1.2442    1.5034   -0.5598 C   0  0  0  0  0  0  0  0  0  0  0  0
  1  2  1  0
  2  3  1  0
  3  4  1  1
  3  5  1  0
  5  6  2  0
  6  7  1  0
  7  8  2  0
  8  9  1  0
  9 10  1  0
 10 11  2  0
 10 12  1  0
 12 13  2  0
 13 14  1  0
 14 15  2  0
  8 16  1  0
 16 17  2  0
 17  5  1  0
 14  9  1  0
M  END
>  <zinc_id>  (57) 
ZINC000000100168

>  <smiles>  (57) 
CC[C@H](C)c1ccc(N2C(=O)C=CC2=O)cc1

$$$$

     RDKit          3D

 22 25  0  0  0  0  0  0  0  0999 V2000
    3.2479    3.1253   -1.4133 C   0  0  0  0  0  0  0  0  0  0  0  0
    3.1809    1.8317   -0.6589 C   0  0  0  0  0  0  0  0  0  0  0  0
    4.3382    1.4512    0.0015 C   0  0  0  0  0  0  0  0  0  0  0  0
    4.3502    0.2710    0.7170 C   0  0  0  0  0  0  0  0  0  0  0  0
    3.2183   -0.5080    0.7645 C   0  0  0  0  0  0  0  0  0  0  0  0
    3.2498   -1.6842    1.4849 C   0  0  0  0  0  0  0  0  0  0  0  0
    2.1003   -2.4471    1.5162 C   0  0  0  0  0  0  0  0  0  0  0  0
    0.9845   -2.0098    0.8370 C   0  0  0  0  0  0  0  0  0  0  0  0
    0.9527   -0.8307    0.1147 C   0  0  0  0  0  0  0  0  0  0  0  0
   -0.1872   -0.3636   -0.5914 N   0  0  0  0  0  0  0  0  0  0  0  0
   -1.4321   -1.3716   -0.4480 C   0  0  1  0  0  0  0  0  0  0  0  0
   -1.5368   -1.2918    1.0264 O   0  0  0  0  0  0  0  0  0  0  0  0
   -2.5127   -0.4062    1.3150 C   0  0  0  0  0  0  0  0  0  0  0  0
   -2.9183   -0.0493    2.4968 O   0  0  0  0  0  0  0  0  0  0  0  0
   -3.1133    0.1532    0.1227 C   0  0  0  0  0  0  0  0  0  0  0  0
   -4.1597    1.1073    0.0044 C   0  0  0  0  0  0  0  0  0  0  0  0
   -4.5645    1.4892   -1.2552 C   0  0  0  0  0  0  0  0  0  0  0  0
   -3.9324    0.9251   -2.3416 C   0  0  0  0  0  0  0  0  0  0  0  0
   -2.9015   -0.0151   -2.2028 C   0  0  0  0  0  0  0  0  0  0  0  0
   -2.5185   -0.3770   -0.9537 C   0  0  0  0  0  0  0  0  0  0  0  0
    2.0769   -0.0760    0.0789 C   0  0  0  0  0  0  0  0  0  0  0  0
    2.0774    1.0764   -0.6151 N   0  0  0  0  0  0  0  0  0  0  0  0
  1  2  1  0
  2  3  2  0
  3  4  1  0
  4  5  2  0
  5  6  1  0
  6  7  2  0
  7  8  1  0
  8  9  2  0
  9 10  1  0
 11 10  1  1
 11 12  1  0
 12 13  1  0
 13 14  2  0
 13 15  1  0
 15 16  2  0
 16 17  1  0
 17 18  2  0
 18 19  1  0
 19 20  2  0
  9 21  1  0
 21 22  2  0
 22  2  1  0
 21  5  1  0
 20 11  1  0
 20 15  1  0
M  END
>  <zinc_id>  (58) 
ZINC000000100283

>  <smiles>  (58) 
Cc1ccc2cccc(N[C@H]3OC(=O)c4ccccc43)c2n1

$$$$

     RDKit          3D

 18 19  0  0  0  0  0  0  0  0999 V2000
   -4.0965   -0.5335   -1.6166 C   0  0  0  0  0  0  0  0  0  0  0  0
   -4.5289   -0.0598   -0.3253 N   0  0  0  0  0  0  0  0  0  0  0  0
   -5.8111    0.0842    0.0536 C   0  0  0  0  0  0  0  0  0  0  0  0
   -5.7908    0.5510    1.3310 N   0  0  0  0  0  0  0  0  0  0  0  0
   -4.5156    0.6735    1.6811 N   0  0  0  0  0  0  0  0  0  0  0  0
   -3.7117    0.3029    0.6763 C   0  0  0  0  0  0  0  0  0  0  0  0
   -1.9253    0.2961    0.6785 S   0  0  0  0  0  0  0  0  0  0  0  0
   -1.3356   -0.2951   -0.9319 C   0  0  0  0  0  0  0  0  0  0  0  0
    0.1493   -0.3216   -0.9872 C   0  0  0  0  0  0  0  0  0  0  0  0
    0.6649   -0.7177   -2.0644 O   0  0  0  0  0  0  0  0  0  0  0  0
    0.9936    0.0600    0.0662 N   0  0  0  0  0  0  0  0  0  0  0  0
    2.4241    0.0225   -0.0200 C   0  0  0  0  0  0  0  0  0  0  0  0
    3.0931   -0.3947   -1.1518 C   0  0  0  0  0  0  0  0  0  0  0  0
    4.4801   -0.4264   -1.2225 C   0  0  0  0  0  0  0  0  0  0  0  0
    5.1955   -0.0250   -0.1179 C   0  0  0  0  0  0  0  0  0  0  0  0
    6.9575   -0.0309   -0.1138 Cl  0  0  0  0  0  0  0  0  0  0  0  0
    4.5684    0.4008    1.0379 C   0  0  0  0  0  0  0  0  0  0  0  0
    3.1891    0.4138    1.0578 C   0  0  0  0  0  0  0  0  0  0  0  0
  1  2  1  0
  2  3  1  0
  3  4  2  0
  4  5  1  0
  5  6  2  0
  6  7  1  0
  7  8  1  0
  8  9  1  0
  9 10  2  0
  9 11  1  0
 11 12  1  0
 12 13  2  0
 13 14  1  0
 14 15  2  0
 15 16  1  0
 15 17  1  0
 17 18  2  0
  6  2  1  0
 18 12  1  0
M  END
>  <zinc_id>  (59) 
ZINC000000105422

>  <smiles>  (59) 
Cn1cnnc1SCC(=O)Nc1ccc(Cl)cc1

$$$$

     RDKit          3D

 22 23  0  0  0  0  0  0  0  0999 V2000
    0.1651   -4.4030   -2.1639 C   0  0  0  0  0  0  0  0  0  0  0  0
    0.0579   -3.1547   -1.7698 O   0  0  0  0  0  0  0  0  0  0  0  0
    0.1625   -1.9100   -1.5285 C   0  0  0  0  0  0  0  0  0  0  0  0
    1.1928   -1.3903   -2.1620 O   0  0  0  0  0  0  0  0  0  0  0  0
   -0.6628   -1.0487   -0.6945 C   0  0  0  0  0  0  0  0  0  0  0  0
   -1.6640   -1.5425   -0.0995 C   0  0  0  0  0  0  0  0  0  0  0  0
   -2.6082   -0.8439    0.7533 N   0  0  0  0  0  0  0  0  0  0  0  0
   -2.3543    0.3876    0.8530 C   0  0  0  0  0  0  0  0  0  0  0  0
   -1.3512    1.1234    0.2780 C   0  0  0  0  0  0  0  0  0  0  0  0
   -1.6754    2.4310   -0.2723 C   0  0  0  0  0  0  0  0  0  0  0  0
   -1.1316    3.5209    0.0310 O   0  0  0  0  0  0  0  0  0  0  0  0
   -2.6738    2.5133   -1.2238 O   0  0  0  0  0  0  0  0  0  0  0  0
   -3.1083    3.6879   -1.8498 C   0  0  0  0  0  0  0  0  0  0  0  0
   -0.1442    0.4388   -0.4751 C   0  0  1  0  0  0  0  0  0  0  0  0
    0.7835    0.2237    0.7800 C   0  0  0  0  0  0  0  0  0  0  0  0
    0.1281    0.0121    1.9487 C   0  0  0  0  0  0  0  0  0  0  0  0
    0.8618   -0.3037    3.1082 C   0  0  0  0  0  0  0  0  0  0  0  0
    2.2196   -0.3886    3.0281 C   0  0  0  0  0  0  0  0  0  0  0  0
    2.8697   -0.1725    1.8511 C   0  0  0  0  0  0  0  0  0  0  0  0
    2.1162    0.1422    0.7077 C   0  0  0  0  0  0  0  0  0  0  0  0
    2.7111    0.3762   -0.4854 O   0  0  0  0  0  0  0  0  0  0  0  0
    4.1055    0.3009   -0.6146 C   0  0  0  0  0  0  0  0  0  0  0  0
  1  2  1  0
  2  3  1  0
  3  4  2  0
  3  5  1  0
  5  6  2  0
  6  7  1  0
  7  8  2  0
  8  9  1  0
  9 10  1  0
 10 11  2  0
 10 12  1  0
 12 13  1  0
  9 14  1  0
 14 15  1  6
 15 16  2  0
 16 17  1  0
 17 18  2  0
 18 19  1  0
 19 20  2  0
 20 21  1  0
 21 22  1  0
 14  5  1  0
 20 15  1  0
M  END
>  <zinc_id>  (60) 
ZINC000000112195

>  <smiles>  (60) 
COC(=O)C1=CN=CC(C(=O)OC)[C@@H]1c1ccccc1OC

$$$$

     RDKit          3D

 20 21  0  0  0  0  0  0  0  0999 V2000
   -5.0341   -1.1603   -2.3191 C   0  0  0  0  0  0  0  0  0  0  0  0
   -4.3028   -0.5704   -1.3119 O   0  0  0  0  0  0  0  0  0  0  0  0
   -2.9164   -0.5661   -1.2145 C   0  0  0  0  0  0  0  0  0  0  0  0
   -2.2098   -1.1120   -2.0662 O   0  0  0  0  0  0  0  0  0  0  0  0
   -2.3752    0.1304   -0.0374 C   0  0  0  0  0  0  0  0  0  0  0  0
   -3.0224    0.7757    0.9761 C   0  0  0  0  0  0  0  0  0  0  0  0
   -4.5165    0.9990    1.0241 C   0  0  0  0  0  0  0  0  0  0  0  0
   -2.1536    1.1697    1.8776 O   0  0  0  0  0  0  0  0  0  0  0  0
   -0.9136    0.8383    1.5338 C   0  0  0  0  0  0  0  0  0  0  0  0
    0.2970    0.9946    2.1033 C   0  0  0  0  0  0  0  0  0  0  0  0
    1.4099    0.4989    1.4479 C   0  0  0  0  0  0  0  0  0  0  0  0
    1.3109   -0.1493    0.2221 C   0  0  0  0  0  0  0  0  0  0  0  0
    2.5045   -0.5702   -0.3227 O   0  0  0  0  0  0  0  0  0  0  0  0
    3.7048   -0.5788    0.6838 C   0  0  2  0  0  0  0  0  0  0  0  0
    3.8837    1.1434    0.7068 C   0  0  0  0  0  0  0  0  0  0  0  0
    4.8535   -0.5695   -0.5857 C   0  0  0  0  0  0  0  0  0  0  0  0
    6.0125   -0.7912   -0.1334 O   0  0  0  0  0  0  0  0  0  0  0  0
    4.4157   -0.3375   -1.8377 O   0  0  0  0  0  0  0  0  0  0  0  0
    0.0921   -0.3149   -0.3552 C   0  0  0  0  0  0  0  0  0  0  0  0
   -1.0401    0.1703    0.2878 C   0  0  0  0  0  0  0  0  0  0  0  0
  1  2  1  0
  2  3  1  0
  3  4  2  0
  3  5  1  0
  5  6  2  0
  6  7  1  0
  6  8  1  0
  8  9  1  0
  9 10  2  0
 10 11  1  0
 11 12  2  0
 12 13  1  0
 13 14  1  0
 14 15  1  1
 14 16  1  0
 16 17  2  0
 16 18  1  0
 12 19  1  0
 19 20  2  0
 20  5  1  0
 20  9  1  0
M  END
>  <zinc_id>  (61) 
ZINC000000116892

>  <smiles>  (61) 
COC(=O)c1c(C)oc2ccc(O[C@H](C)C(=O)O)cc12

$$$$

     RDKit          3D

 22 23  0  0  0  0  0  0  0  0999 V2000
    5.6921    0.0740   -0.8789 C   0  0  0  0  0  0  0  0  0  0  0  0
    4.6333    0.4989   -1.6896 O   0  0  0  0  0  0  0  0  0  0  0  0
    3.3219    0.4085   -1.1805 C   0  0  0  0  0  0  0  0  0  0  0  0
    3.0492   -0.0720    0.0581 C   0  0  0  0  0  0  0  0  0  0  0  0
    1.7355   -0.1523    0.5440 C   0  0  0  0  0  0  0  0  0  0  0  0
    0.6813    0.2627   -0.2425 C   0  0  0  0  0  0  0  0  0  0  0  0
   -0.6704    0.1627    0.3054 C   0  0  0  0  0  0  0  0  0  0  0  0
   -1.2626    1.0489    1.1649 C   0  0  0  0  0  0  0  0  0  0  0  0
   -0.5978    2.2967    1.6937 C   0  0  0  0  0  0  0  0  0  0  0  0
   -1.4368    2.9718    2.5258 F   0  0  0  0  0  0  0  0  0  0  0  0
    0.5642    2.0127    2.3586 F   0  0  0  0  0  0  0  0  0  0  0  0
   -0.2616    3.1290    0.6289 F   0  0  0  0  0  0  0  0  0  0  0  0
   -2.4864    0.6017    1.4232 N   0  0  0  0  0  0  0  0  0  0  0  0
   -2.7126   -0.5439    0.7629 N   0  0  0  0  0  0  0  0  0  0  0  0
   -3.9516   -1.3073    0.8183 C   0  0  0  0  0  0  0  0  0  0  0  0
   -1.6246   -0.8644    0.0549 C   0  0  0  0  0  0  0  0  0  0  0  0
   -1.2691   -1.9035   -0.7989 N   0  0  0  0  0  0  0  0  0  0  0  0
   -2.0099   -2.9856   -1.1796 C   0  0  0  0  0  0  0  0  0  0  0  0
   -1.4739   -4.0512   -2.1335 C   0  0  0  0  0  0  0  0  0  0  0  0
   -3.1739   -3.1608   -0.7641 O   0  0  0  0  0  0  0  0  0  0  0  0
    0.9809    0.7452   -1.4918 C   0  0  0  0  0  0  0  0  0  0  0  0
    2.2730    0.8282   -1.9794 C   0  0  0  0  0  0  0  0  0  0  0  0
  1  2  1  0
  2  3  1  0
  3  4  2  0
  4  5  1  0
  5  6  2  0
  6  7  1  0
  7  8  1  0
  8  9  1  0
  9 10  1  0
  9 11  1  0
  9 12  1  0
  8 13  2  0
 13 14  1  0
 14 15  1  0
 14 16  1  0
 16 17  1  0
 17 18  1  0
 18 19  1  0
 18 20  2  0
  6 21  1  0
 21 22  2  0
 22  3  1  0
 16  7  2  0
M  END
>  <zinc_id>  (62) 
ZINC000000118067

>  <smiles>  (62) 
COc1ccc(-c2c(C(F)(F)F)nn(C)c2NC(C)=O)cc1

$$$$

     RDKit          3D

 21 23  0  0  0  0  0  0  0  0999 V2000
   -7.0723    0.0304    1.3959 S   0  0  0  0  0  0  0  0  0  0  0  0
   -5.7086    0.2870    0.2718 C   0  0  0  0  0  0  0  0  0  0  0  0
   -5.9862    0.6857   -0.9791 N   0  0  0  0  0  0  0  0  0  0  0  0
   -4.9970    0.8872   -1.8448 C   0  0  0  0  0  0  0  0  0  0  0  0
   -3.6702    0.6928   -1.4817 C   0  0  0  0  0  0  0  0  0  0  0  0
   -3.3975    0.2846   -0.1985 C   0  0  0  0  0  0  0  0  0  0  0  0
   -1.9994    0.0584    0.2545 C   0  0  0  0  0  0  0  0  0  0  0  0
   -1.7575   -0.3504    1.5456 C   0  0  0  0  0  0  0  0  0  0  0  0
   -0.0567   -0.4655    1.5716 S   0  0  0  0  0  0  0  0  0  0  0  0
    0.2427    0.0057   -0.0366 C   0  0  0  0  0  0  0  0  0  0  0  0
    1.5697    0.1406   -0.7539 C   0  0  0  0  0  0  0  0  0  0  0  0
    2.5426   -0.2108    0.1979 O   0  0  0  0  0  0  0  0  0  0  0  0
    3.9004   -0.2166   -0.0640 C   0  0  0  0  0  0  0  0  0  0  0  0
    4.3628    0.1401   -1.3304 C   0  0  0  0  0  0  0  0  0  0  0  0
    5.7242    0.1231   -1.5563 C   0  0  0  0  0  0  0  0  0  0  0  0
    6.6117   -0.2401   -0.5479 C   0  0  0  0  0  0  0  0  0  0  0  0
    6.1700   -0.5923    0.6993 C   0  0  0  0  0  0  0  0  0  0  0  0
    4.7901   -0.5747    0.9269 C   0  0  0  0  0  0  0  0  0  0  0  0
    4.1294   -1.0092    2.4898 Cl  0  0  0  0  0  0  0  0  0  0  0  0
   -0.9649    0.2268   -0.5122 N   0  0  0  0  0  0  0  0  0  0  0  0
   -4.4331    0.0974    0.6300 N   0  0  0  0  0  0  0  0  0  0  0  0
  1  2  1  0
  2  3  2  0
  3  4  1  0
  4  5  2  0
  5  6  1  0
  6  7  1  0
  7  8  2  0
  8  9  1  0
  9 10  1  0
 10 11  1  0
 11 12  1  0
 12 13  1  0
 13 14  2  0
 14 15  1  0
 15 16  2  0
 16 17  1  0
 17 18  2  0
 18 19  1  0
 10 20  2  0
  6 21  2  0
 21  2  1  0
 20  7  1  0
 18 13  1  0
M  END
>  <zinc_id>  (63) 
ZINC000000122784

>  <smiles>  (63) 
Sc1nccc(-c2csc(COc3ccccc3Cl)n2)n1

$$$$

     RDKit          3D

 23 25  0  0  0  0  0  0  0  0999 V2000
   -3.3179   -1.6821    1.9331 C   0  0  0  0  0  0  0  0  0  0  0  0
   -3.9743   -0.4478    1.4366 C   0  0  0  0  0  0  0  0  0  0  0  0
   -5.1729    0.0390    1.9118 C   0  0  0  0  0  0  0  0  0  0  0  0
   -5.7562    1.1949    1.4252 C   0  0  0  0  0  0  0  0  0  0  0  0
   -5.1373    1.9143    0.4227 C   0  0  0  0  0  0  0  0  0  0  0  0
   -3.9345    1.4532   -0.0747 C   0  0  0  0  0  0  0  0  0  0  0  0
   -3.3592    0.2845    0.4261 C   0  0  0  0  0  0  0  0  0  0  0  0
   -2.1120   -0.1970   -0.0853 N   0  0  0  0  0  0  0  0  0  0  0  0
   -0.8814    0.5602   -0.2033 C   0  0  0  0  0  0  0  0  0  0  0  0
   -0.4353   -0.0897   -1.6413 C   0  0  1  0  0  0  0  0  0  0  0  0
    1.1288    0.1646   -1.4098 C   0  0  0  0  0  0  0  0  0  0  0  0
    1.5954    0.8621   -2.3428 O   0  0  0  0  0  0  0  0  0  0  0  0
    1.8042   -0.3247   -0.3407 N   0  0  0  0  0  0  0  0  0  0  0  0
    3.1910   -0.0730   -0.1796 C   0  0  0  0  0  0  0  0  0  0  0  0
    3.9496    0.6657   -1.0505 C   0  0  0  0  0  0  0  0  0  0  0  0
    5.3126    0.8773   -0.8412 C   0  0  0  0  0  0  0  0  0  0  0  0
    5.9139    0.3361    0.2606 C   0  0  0  0  0  0  0  0  0  0  0  0
    7.2324    0.5285    0.4800 F   0  0  0  0  0  0  0  0  0  0  0  0
    5.1784   -0.4127    1.1561 C   0  0  0  0  0  0  0  0  0  0  0  0
    3.8191   -0.6080    0.9216 C   0  0  0  0  0  0  0  0  0  0  0  0
   -0.4695   -1.6187   -1.0193 C   0  0  0  0  0  0  0  0  0  0  0  0
   -1.8911   -1.5172   -0.5620 C   0  0  0  0  0  0  0  0  0  0  0  0
   -2.6837   -2.4812   -0.6234 O   0  0  0  0  0  0  0  0  0  0  0  0
  1  2  1  0
  2  3  2  0
  3  4  1  0
  4  5  2  0
  5  6  1  0
  6  7  2  0
  7  8  1  0
  8  9  1  0
  9 10  1  0
 10 11  1  1
 11 12  2  0
 11 13  1  0
 13 14  1  0
 14 15  2  0
 15 16  1  0
 16 17  2  0
 17 18  1  0
 17 19  1  0
 19 20  2  0
 10 21  1  0
 21 22  1  0
 22 23  2  0
  7  2  1  0
 22  8  1  0
 20 14  1  0
M  END
>  <zinc_id>  (64) 
ZINC000000122820

>  <smiles>  (64) 
Cc1ccccc1N1C[C@@H](C(=O)Nc2ccc(F)cc2)CC1=O

$$$$

     RDKit          3D

 16 17  0  0  0  0  0  0  0  0999 V2000
    4.1554    1.6859   -0.1790 C   0  0  0  0  0  0  0  0  0  0  0  0
    4.6045    0.2463   -0.1561 C   0  0  0  0  0  0  0  0  0  0  0  0
    3.7415   -0.5771    0.5982 O   0  0  0  0  0  0  0  0  0  0  0  0
    2.4106   -0.6816    0.2214 C   0  0  0  0  0  0  0  0  0  0  0  0
    2.0300   -0.0440   -0.7685 O   0  0  0  0  0  0  0  0  0  0  0  0
    1.5021   -1.5543    1.0233 C   0  0  0  0  0  0  0  0  0  0  0  0
    0.1828   -1.5257    0.4748 N   0  0  0  0  0  0  0  0  0  0  0  0
   -0.6081   -0.3539    0.3449 C   0  0  0  0  0  0  0  0  0  0  0  0
   -0.1830    0.8623    0.7326 N   0  0  0  0  0  0  0  0  0  0  0  0
   -0.9569    1.9544    0.5960 C   0  0  0  0  0  0  0  0  0  0  0  0
   -2.1835    1.8777    0.0684 N   0  0  0  0  0  0  0  0  0  0  0  0
   -2.6307    0.6799   -0.3254 C   0  0  0  0  0  0  0  0  0  0  0  0
   -3.8114    0.3463   -0.8780 N   0  0  0  0  0  0  0  0  0  0  0  0
   -3.7785   -0.9645   -1.0899 C   0  0  0  0  0  0  0  0  0  0  0  0
   -2.6055   -1.4880   -0.6881 N   0  0  0  0  0  0  0  0  0  0  0  0
   -1.8692   -0.4637   -0.2029 C   0  0  0  0  0  0  0  0  0  0  0  0
  1  2  1  0
  2  3  1  0
  3  4  1  0
  4  5  2  0
  4  6  1  0
  6  7  1  0
  7  8  1  0
  8  9  2  0
  9 10  1  0
 10 11  2  0
 11 12  1  0
 12 13  1  0
 13 14  1  0
 14 15  2  0
 15 16  1  0
 16  8  1  0
 16 12  2  0
M  END
>  <zinc_id>  (65) 
ZINC000000123823

>  <smiles>  (65) 
CCOC(=O)CNc1ncnc2[nH]cnc12

$$$$

     RDKit          3D

 13 13  0  0  0  0  0  0  0  0999 V2000
   -1.4749    2.3403    0.1501 C   0  0  0  0  0  0  0  0  0  0  0  0
   -0.4487    1.2661    0.0865 C   0  0  0  0  0  0  0  0  0  0  0  0
    0.9248    1.3612    0.1257 C   0  0  0  0  0  0  0  0  0  0  0  0
    1.4459    0.0978    0.0352 C   0  0  0  0  0  0  0  0  0  0  0  0
    2.8662   -0.3138    0.0343 C   0  0  0  0  0  0  0  0  0  0  0  0
    3.7315    0.6114    0.1292 O   0  0  0  0  0  0  0  0  0  0  0  0
    3.1834   -1.6447   -0.0664 O   0  0  0  0  0  0  0  0  0  0  0  0
    0.3861   -0.7294   -0.0561 N   0  0  0  0  0  0  0  0  0  0  0  0
   -0.7473   -0.0446   -0.0266 N   0  0  0  0  0  0  0  0  0  0  0  0
   -2.0976   -0.5996   -0.1025 C   0  0  0  0  0  0  0  0  0  0  0  0
   -2.1941   -1.8828    0.7115 C   0  0  0  0  0  0  0  0  0  0  0  0
   -2.4767   -0.8291   -1.5517 C   0  0  0  0  0  0  0  0  0  0  0  0
   -3.0985    0.3671    0.5308 C   0  0  0  0  0  0  0  0  0  0  0  0
  1  2  1  0
  2  3  2  0
  3  4  1  0
  4  5  1  0
  5  6  2  0
  5  7  1  0
  4  8  2  0
  8  9  1  0
  9 10  1  0
 10 11  1  0
 10 12  1  0
 10 13  1  0
  9  2  1  0
M  END
>  <zinc_id>  (66) 
ZINC000000128082

>  <smiles>  (66) 
Cc1cc(C(=O)O)nn1C(C)(C)C

$$$$

     RDKit          3D

 23 26  0  0  0  0  0  0  0  0999 V2000
   -3.7583   -1.4569    2.1834 C   0  0  0  0  0  0  0  0  0  0  0  0
   -2.8152   -1.0066    1.1483 N   0  0  0  0  0  0  0  0  0  0  0  0
   -1.6353   -1.6536    0.7598 C   0  0  0  0  0  0  0  0  0  0  0  0
   -1.1554   -2.7341    1.2139 O   0  0  0  0  0  0  0  0  0  0  0  0
   -0.9888   -0.8872   -0.2926 C   0  0  2  0  0  0  0  0  0  0  0  0
   -0.5778   -1.5714   -1.3669 O   0  0  0  0  0  0  0  0  0  0  0  0
    0.2900   -0.1263    0.4086 C   0  0  1  0  0  0  0  0  0  0  0  0
    1.0239   -1.5079    0.8542 C   0  0  0  0  0  0  0  0  0  0  0  0
    2.2126   -0.9384    1.6058 C   0  0  0  0  0  0  0  0  0  0  0  0
    3.0251   -0.0600    0.6934 C   0  0  0  0  0  0  0  0  0  0  0  0
    4.2952    0.2473    1.0608 C   0  0  0  0  0  0  0  0  0  0  0  0
    5.0668    1.0517    0.2309 C   0  0  0  0  0  0  0  0  0  0  0  0
    4.5683    1.5476   -0.9639 C   0  0  0  0  0  0  0  0  0  0  0  0
    3.2769    1.2362   -1.3388 C   0  0  0  0  0  0  0  0  0  0  0  0
    2.5307    0.4308   -0.4895 C   0  0  0  0  0  0  0  0  0  0  0  0
    1.1740    0.0848   -0.8622 C   0  0  0  0  0  0  0  0  0  0  0  0
    0.7702   -0.0271   -1.9966 O   0  0  0  0  0  0  0  0  0  0  0  0
   -1.8555    0.2618   -0.5117 C   0  0  0  0  0  0  0  0  0  0  0  0
   -1.8319    1.3665   -1.3566 C   0  0  0  0  0  0  0  0  0  0  0  0
   -2.8440    2.2843   -1.2950 C   0  0  0  0  0  0  0  0  0  0  0  0
   -3.9129    2.1895   -0.4330 C   0  0  0  0  0  0  0  0  0  0  0  0
   -3.9485    1.1084    0.4030 C   0  0  0  0  0  0  0  0  0  0  0  0
   -2.9103    0.1605    0.3446 C   0  0  0  0  0  0  0  0  0  0  0  0
  1  2  1  0
  2  3  1  0
  3  4  2  0
  3  5  1  0
  5  6  1  6
  5  7  1  0
  7  8  1  1
  8  9  1  0
  9 10  1  0
 10 11  2  0
 11 12  1  0
 12 13  2  0
 13 14  1  0
 14 15  2  0
 15 16  1  0
 16 17  2  0
  5 18  1  0
 18 19  2  0
 19 20  1  0
 20 21  2  0
 21 22  1  0
 22 23  2  0
 23  2  1  0
 16  7  1  0
 23 18  1  0
 15 10  1  0
M  END
>  <zinc_id>  (67) 
ZINC000000128789

>  <smiles>  (67) 
CN1C(=O)[C@](O)([C@H]2CCc3ccccc3C2=O)c2ccccc21

$$$$

     RDKit          3D

 15 15  0  0  0  0  0  0  0  0999 V2000
    5.3233   -0.0574   -0.2535 C   0  0  0  0  0  0  0  0  0  0  0  0
    3.8734    0.1321    0.0019 C   0  0  0  0  0  0  0  0  0  0  0  0
    3.5268    0.5172    1.1463 O   0  0  0  0  0  0  0  0  0  0  0  0
    2.8773   -0.1019   -0.9835 N   0  0  0  0  0  0  0  0  0  0  0  0
    1.4807    0.0977   -0.6828 C   0  0  0  0  0  0  0  0  0  0  0  0
    1.0510    0.5150    0.5442 C   0  0  0  0  0  0  0  0  0  0  0  0
   -0.2939    0.6941    0.7916 C   0  0  0  0  0  0  0  0  0  0  0  0
   -1.2220    0.4531   -0.1997 C   0  0  0  0  0  0  0  0  0  0  0  0
   -2.5688    0.6375    0.0644 O   0  0  0  0  0  0  0  0  0  0  0  0
   -3.3014   -0.4683    0.5649 C   0  0  0  0  0  0  0  0  0  0  0  0
   -3.2119   -1.4750   -0.3949 F   0  0  0  0  0  0  0  0  0  0  0  0
   -2.6674   -0.9170    1.7070 F   0  0  0  0  0  0  0  0  0  0  0  0
   -4.6122   -0.1588    0.8045 F   0  0  0  0  0  0  0  0  0  0  0  0
   -0.8025    0.0302   -1.4468 C   0  0  0  0  0  0  0  0  0  0  0  0
    0.5476   -0.1396   -1.6636 C   0  0  0  0  0  0  0  0  0  0  0  0
  1  2  1  0
  2  3  2  0
  2  4  1  0
  4  5  1  0
  5  6  2  0
  6  7  1  0
  7  8  2  0
  8  9  1  0
  9 10  1  0
 10 11  1  0
 10 12  1  0
 10 13  1  0
  8 14  1  0
 14 15  2  0
 15  5  1  0
M  END
>  <zinc_id>  (68) 
ZINC000000128879

>  <smiles>  (68) 
CC(=O)Nc1ccc(OC(F)(F)F)cc1

$$$$

     RDKit          3D

 21 23  0  0  0  0  0  0  0  0999 V2000
    0.3266   -3.3028    2.0922 N   0  0  0  0  0  0  0  0  0  0  0  0
    0.2081   -2.1217    1.2957 C   0  0  0  0  0  0  0  0  0  0  0  0
   -0.9853   -1.6194    0.9265 N   0  0  0  0  0  0  0  0  0  0  0  0
   -1.0241   -0.5094    0.1797 C   0  0  0  0  0  0  0  0  0  0  0  0
   -2.3188    0.0481   -0.2292 C   0  0  0  0  0  0  0  0  0  0  0  0
   -2.4102    1.1890   -0.9981 C   0  0  0  0  0  0  0  0  0  0  0  0
   -3.6236    1.7191   -1.3865 C   0  0  0  0  0  0  0  0  0  0  0  0
   -4.8143    1.1201   -1.0155 C   0  0  0  0  0  0  0  0  0  0  0  0
   -6.3653    1.7785   -1.4990 Cl  0  0  0  0  0  0  0  0  0  0  0  0
   -4.7236   -0.0217   -0.2459 C   0  0  0  0  0  0  0  0  0  0  0  0
   -3.5071   -0.5470    0.1392 C   0  0  0  0  0  0  0  0  0  0  0  0
    0.1687    0.0729   -0.1797 C   0  0  0  0  0  0  0  0  0  0  0  0
    1.3924   -0.4302    0.1907 C   0  0  0  0  0  0  0  0  0  0  0  0
    2.5940    0.2667   -0.2455 C   0  0  0  0  0  0  0  0  0  0  0  0
    2.4838    1.4046   -1.0129 C   0  0  0  0  0  0  0  0  0  0  0  0
    3.6315    2.0430   -1.4114 C   0  0  0  0  0  0  0  0  0  0  0  0
    4.8773    1.5852   -1.0707 C   0  0  0  0  0  0  0  0  0  0  0  0
    4.9644    0.4482   -0.3046 C   0  0  0  0  0  0  0  0  0  0  0  0
    3.8566   -0.2157    0.1121 C   0  0  0  0  0  0  0  0  0  0  0  0
    3.8827   -1.3650    0.8849 O   0  0  0  0  0  0  0  0  0  0  0  0
    1.3861   -1.5423    0.9377 N   0  0  0  0  0  0  0  0  0  0  0  0
  1  2  1  0
  2  3  2  0
  3  4  1  0
  4  5  1  0
  5  6  2  0
  6  7  1  0
  7  8  2  0
  8  9  1  0
  8 10  1  0
 10 11  2  0
  4 12  2  0
 12 13  1  0
 13 14  1  0
 14 15  2  0
 15 16  1  0
 16 17  2  0
 17 18  1  0
 18 19  2  0
 19 20  1  0
 13 21  2  0
 21  2  1  0
 11  5  1  0
 19 14  1  0
M  END
>  <zinc_id>  (69) 
ZINC000000130680

>  <smiles>  (69) 
Nc1nc(-c2ccc(Cl)cc2)cc(-c2ccccc2O)n1

$$$$

     RDKit          3D

 24 25  0  0  0  0  0  0  0  0999 V2000
    5.1118    3.6048    1.9921 C   0  0  0  0  0  0  0  0  0  0  0  0
    5.0024    2.1877    2.0044 O   0  0  0  0  0  0  0  0  0  0  0  0
    4.0147    1.6074    1.2062 C   0  0  0  0  0  0  0  0  0  0  0  0
    3.1656    2.3662    0.4266 C   0  0  0  0  0  0  0  0  0  0  0  0
    2.1951    1.7756   -0.3562 C   0  0  0  0  0  0  0  0  0  0  0  0
    2.0288    0.4075   -0.3962 C   0  0  0  0  0  0  0  0  0  0  0  0
    0.9993   -0.2231   -1.2262 C   0  0  0  0  0  0  0  0  0  0  0  0
    0.2481    0.5048   -1.9201 O   0  0  0  0  0  0  0  0  0  0  0  0
    0.8443   -1.5884   -1.2568 O   0  0  0  0  0  0  0  0  0  0  0  0
   -0.1242   -2.2577   -2.0320 C   0  0  0  0  0  0  0  0  0  0  0  0
   -1.5033   -1.8555   -1.6757 C   0  0  0  0  0  0  0  0  0  0  0  0
   -2.4547   -2.3823   -2.2964 O   0  0  0  0  0  0  0  0  0  0  0  0
   -1.7937   -0.9065   -0.6698 N   0  0  0  0  0  0  0  0  0  0  0  0
   -3.1529   -0.5558   -0.3679 C   0  0  0  0  0  0  0  0  0  0  0  0
   -3.4012    0.3652    0.6098 C   0  0  0  0  0  0  0  0  0  0  0  0
   -4.6989    0.7173    0.9166 C   0  0  0  0  0  0  0  0  0  0  0  0
   -5.7719    0.1625    0.2595 C   0  0  0  0  0  0  0  0  0  0  0  0
   -7.0606    0.5224    0.5753 F   0  0  0  0  0  0  0  0  0  0  0  0
   -5.5157   -0.7652   -0.7250 C   0  0  0  0  0  0  0  0  0  0  0  0
   -4.2213   -1.1235   -1.0387 C   0  0  0  0  0  0  0  0  0  0  0  0
    2.8778   -0.3498    0.3833 C   0  0  0  0  0  0  0  0  0  0  0  0
    3.8499    0.2379    1.1677 C   0  0  0  0  0  0  0  0  0  0  0  0
    4.7130   -0.5238    1.9594 O   0  0  0  0  0  0  0  0  0  0  0  0
    4.6477   -1.9278    2.0082 C   0  0  0  0  0  0  0  0  0  0  0  0
  1  2  1  0
  2  3  1  0
  3  4  2  0
  4  5  1  0
  5  6  2  0
  6  7  1  0
  7  8  2  0
  7  9  1  0
  9 10  1  0
 10 11  1  0
 11 12  2  0
 11 13  1  0
 13 14  1  0
 14 15  2  0
 15 16  1  0
 16 17  2  0
 17 18  1  0
 17 19  1  0
 19 20  2  0
  6 21  1  0
 21 22  2  0
 22 23  1  0
 23 24  1  0
 22  3  1  0
 20 14  1  0
M  END
>  <zinc_id>  (70) 
ZINC000000130853

>  <smiles>  (70) 
COc1ccc(C(=O)OCC(=O)Nc2ccc(F)cc2)cc1OC

$$$$

     RDKit          3D

 24 25  0  0  0  0  0  0  0  0999 V2000
   -3.2844    2.5683    0.4672 O   0  0  0  0  0  0  0  0  0  0  0  0
   -4.0894    1.6887    0.4099 C   0  0  0  0  0  0  0  0  0  0  0  0
   -5.1916    1.6272    1.2478 O   0  0  0  0  0  0  0  0  0  0  0  0
   -4.0817    0.4592   -0.5822 C   0  0  1  0  0  0  0  0  0  0  0  0
   -2.7445    0.8221   -1.4151 C   0  0  0  0  0  0  0  0  0  0  0  0
   -2.5542   -0.3743   -2.3117 C   0  0  0  0  0  0  0  0  0  0  0  0
   -2.6621   -1.6668   -1.6181 C   0  0  0  0  0  0  0  0  0  0  0  0
   -3.5027   -1.8658   -0.4733 C   0  0  0  0  0  0  0  0  0  0  0  0
   -3.4810   -0.6282    0.5681 C   0  0  1  0  0  0  0  0  0  0  0  0
   -1.9570   -0.3412    0.5952 C   0  0  0  0  0  0  0  0  0  0  0  0
   -1.6097    0.5755    1.3688 O   0  0  0  0  0  0  0  0  0  0  0  0
   -1.0153   -1.0090   -0.1541 N   0  0  0  0  0  0  0  0  0  0  0  0
    0.3858   -0.7509   -0.1480 C   0  0  0  0  0  0  0  0  0  0  0  0
    0.7129    0.5914   -0.7196 C   0  0  0  0  0  0  0  0  0  0  0  0
    2.0752    0.7115   -1.3278 C   0  0  0  0  0  0  0  0  0  0  0  0
    2.7673    1.9184   -0.7328 C   0  0  0  0  0  0  0  0  0  0  0  0
    4.2122    1.5986   -0.3944 C   0  0  0  0  0  0  0  0  0  0  0  0
    4.5563    0.2748   -1.0646 C   0  0  0  0  0  0  0  0  0  0  0  0
    5.7646   -0.2930   -0.3493 C   0  0  0  0  0  0  0  0  0  0  0  0
    5.2452   -1.1914    0.7458 C   0  0  0  0  0  0  0  0  0  0  0  0
    4.1235   -0.4162    1.4522 C   0  0  0  0  0  0  0  0  0  0  0  0
    3.1943   -1.4008    2.1342 C   0  0  0  0  0  0  0  0  0  0  0  0
    2.1627   -1.9165    1.1604 C   0  0  0  0  0  0  0  0  0  0  0  0
    0.9736   -0.9816    1.2069 C   0  0  0  0  0  0  0  0  0  0  0  0
  1  2  2  0
  2  3  1  0
  4  2  1  1
  4  5  1  0
  5  6  1  0
  6  7  1  0
  7  8  1  0
  8  9  1  0
  9 10  1  6
 10 11  2  0
 10 12  1  0
 12 13  1  0
 13 14  1  0
 14 15  1  0
 15 16  1  0
 16 17  1  0
 17 18  1  0
 18 19  1  0
 19 20  1  0
 20 21  1  0
 21 22  1  0
 22 23  1  0
 23 24  1  0
  9  4  1  0
 24 13  1  0
M  END
>  <zinc_id>  (71) 
ZINC000000133423

>  <smiles>  (71) 
O=C(O)[C@H]1CCCC[C@H]1C(=O)NC1CCCCCCCCCCC1

$$$$

     RDKit          3D

 18 19  0  0  0  0  0  0  0  0999 V2000
   -1.1001   -1.1186    0.9645 O   0  0  0  0  0  0  0  0  0  0  0  0
   -0.8299   -0.4945   -0.0667 C   0  0  0  0  0  0  0  0  0  0  0  0
    0.5258    0.0152   -0.4142 C   0  0  0  0  0  0  0  0  0  0  0  0
    1.5149   -0.3799    0.5171 O   0  0  0  0  0  0  0  0  0  0  0  0
    2.8051    0.0935    0.1896 C   0  0  0  0  0  0  0  0  0  0  0  0
    3.0280    0.8849   -0.9410 C   0  0  0  0  0  0  0  0  0  0  0  0
    4.2790    1.3558   -1.2678 C   0  0  0  0  0  0  0  0  0  0  0  0
    5.3385    1.0161   -0.4291 C   0  0  0  0  0  0  0  0  0  0  0  0
    5.1557    0.2349    0.6944 C   0  0  0  0  0  0  0  0  0  0  0  0
    3.8669   -0.2272    0.9995 C   0  0  0  0  0  0  0  0  0  0  0  0
    3.5302   -1.3213    2.5246 Br  0  0  0  0  0  0  0  0  0  0  0  0
   -1.8955   -0.2398   -0.9864 N   0  0  0  0  0  0  0  0  0  0  0  0
   -3.2387   -0.6342   -0.8311 C   0  0  0  0  0  0  0  0  0  0  0  0
   -3.7234   -1.0453    0.4973 C   0  0  0  0  0  0  0  0  0  0  0  0
   -4.4440    0.0042    1.2671 C   0  0  0  0  0  0  0  0  0  0  0  0
   -5.5919    0.5346    0.4298 C   0  0  0  0  0  0  0  0  0  0  0  0
   -5.0063    1.1521   -0.8186 C   0  0  0  0  0  0  0  0  0  0  0  0
   -4.2145    0.1694   -1.6473 C   0  0  0  0  0  0  0  0  0  0  0  0
  1  2  2  0
  2  3  1  0
  3  4  1  0
  4  5  1  0
  5  6  2  0
  6  7  1  0
  7  8  2  0
  8  9  1  0
  9 10  2  0
 10 11  1  0
  2 12  1  0
 12 13  1  0
 13 14  1  0
 14 15  1  0
 15 16  1  0
 16 17  1  0
 17 18  1  0
 10  5  1  0
 18 13  1  0
M  END
>  <zinc_id>  (72) 
ZINC000000141159

>  <smiles>  (72) 
O=C(COc1ccccc1Br)NC1CCCCC1

$$$$

     RDKit          3D

 19 19  0  0  0  0  0  0  0  0999 V2000
   -3.1602   -3.3271   -0.5291 C   0  0  0  0  0  0  0  0  0  0  0  0
   -3.0296   -2.3145   -1.6331 C   0  0  0  0  0  0  0  0  0  0  0  0
   -2.6762   -1.0439   -1.2213 O   0  0  0  0  0  0  0  0  0  0  0  0
   -1.5586   -0.6488   -0.5589 C   0  0  0  0  0  0  0  0  0  0  0  0
   -0.5696   -1.5343   -0.1909 C   0  0  0  0  0  0  0  0  0  0  0  0
    0.5526   -1.0920    0.4823 C   0  0  0  0  0  0  0  0  0  0  0  0
    0.6440    0.2180    0.7622 C   0  0  0  0  0  0  0  0  0  0  0  0
    1.9315    0.7787    1.5460 C   0  0  1  0  0  0  0  0  0  0  0  0
    1.7372   -0.1993    2.8487 C   0  0  0  0  0  0  0  0  0  0  0  0
    1.7923   -1.5405    2.4241 N   0  0  0  0  0  0  0  0  0  0  0  0
    3.0468   -0.1776    0.8181 C   0  0  0  0  0  0  0  0  0  0  0  0
    2.8628    0.2368   -0.5886 C   0  0  0  0  0  0  0  0  0  0  0  0
    2.0557    1.0930   -1.0122 O   0  0  0  0  0  0  0  0  0  0  0  0
    3.6875   -0.4078   -1.5325 O   0  0  0  0  0  0  0  0  0  0  0  0
   -0.2938    1.1472    0.4290 C   0  0  0  0  0  0  0  0  0  0  0  0
   -1.4228    0.6953   -0.2494 C   0  0  0  0  0  0  0  0  0  0  0  0
   -2.3926    1.6240   -0.5997 O   0  0  0  0  0  0  0  0  0  0  0  0
   -2.2295    2.9712   -0.2752 C   0  0  0  0  0  0  0  0  0  0  0  0
   -0.9776    3.5218   -0.9195 C   0  0  0  0  0  0  0  0  0  0  0  0
  1  2  1  0
  2  3  1  0
  3  4  1  0
  4  5  2  0
  5  6  1  0
  6  7  2  0
  7  8  1  0
  8  9  1  1
  9 10  1  0
  8 11  1  0
 11 12  1  0
 12 13  2  0
 12 14  1  0
  7 15  1  0
 15 16  2  0
 16 17  1  0
 17 18  1  0
 18 19  1  0
 16  4  1  0
M  END
>  <zinc_id>  (73) 
ZINC000000141576

>  <smiles>  (73) 
CCOc1ccc([C@@H](CN)CC(=O)O)cc1OCC

$$$$

     RDKit          3D

 20 21  0  0  0  0  0  0  0  0999 V2000
   -6.8641   -1.1628   -0.5692 C   0  0  0  0  0  0  0  0  0  0  0  0
   -6.5268   -0.0523    0.4041 C   0  0  0  0  0  0  0  0  0  0  0  0
   -5.1803   -0.0668    0.7862 O   0  0  0  0  0  0  0  0  0  0  0  0
   -4.2026    0.0759   -0.1855 C   0  0  0  0  0  0  0  0  0  0  0  0
   -4.5877    0.2126   -1.3769 O   0  0  0  0  0  0  0  0  0  0  0  0
   -2.7818    0.0718    0.1269 C   0  0  0  0  0  0  0  0  0  0  0  0
   -2.3427   -0.0757    1.4164 C   0  0  0  0  0  0  0  0  0  0  0  0
   -0.9831   -0.0788    1.7086 C   0  0  0  0  0  0  0  0  0  0  0  0
   -0.0556    0.0668    0.7028 C   0  0  0  0  0  0  0  0  0  0  0  0
    1.3577    0.0641    1.0021 N   0  0  0  0  0  0  0  0  0  0  0  0
    2.3137    0.2142   -0.0362 C   0  0  0  0  0  0  0  0  0  0  0  0
    1.8794    0.3470   -1.2065 O   0  0  0  0  0  0  0  0  0  0  0  0
    3.7581    0.2212    0.1901 C   0  0  0  0  0  0  0  0  0  0  0  0
    4.3093   -1.0130    0.8053 C   0  0  0  0  0  0  0  0  0  0  0  0
    5.3316   -1.6198   -0.1063 C   0  0  0  0  0  0  0  0  0  0  0  0
    6.4726   -0.6389   -0.2327 C   0  0  0  0  0  0  0  0  0  0  0  0
    5.9736    0.6090   -0.9211 C   0  0  0  0  0  0  0  0  0  0  0  0
    4.4960    0.6920   -1.0314 C   0  0  0  0  0  0  0  0  0  0  0  0
   -0.4991    0.2145   -0.5901 C   0  0  0  0  0  0  0  0  0  0  0  0
   -1.8682    0.2179   -0.8865 C   0  0  0  0  0  0  0  0  0  0  0  0
  1  2  1  0
  2  3  1  0
  3  4  1  0
  4  5  2  0
  4  6  1  0
  6  7  2  0
  7  8  1  0
  8  9  2  0
  9 10  1  0
 10 11  1  0
 11 12  2  0
 11 13  1  0
 13 14  1  0
 14 15  1  0
 15 16  1  0
 16 17  1  0
 17 18  1  0
  9 19  1  0
 19 20  2  0
 20  6  1  0
 18 13  1  0
M  END
>  <zinc_id>  (74) 
ZINC000000142101

>  <smiles>  (74) 
CCOC(=O)c1ccc(NC(=O)C2CCCCC2)cc1

$$$$

     RDKit          3D

 26 28  0  0  0  0  0  0  0  0999 V2000
    7.5582    2.8306   -1.3716 C   0  0  0  0  0  0  0  0  0  0  0  0
    7.0742    1.6453   -0.6104 C   0  0  0  0  0  0  0  0  0  0  0  0
    7.9522    0.8796    0.1239 C   0  0  0  0  0  0  0  0  0  0  0  0
    7.5366   -0.2127    0.8315 C   0  0  0  0  0  0  0  0  0  0  0  0
    6.2141   -0.5845    0.8317 C   0  0  0  0  0  0  0  0  0  0  0  0
    5.3204    0.1755    0.0982 C   0  0  0  0  0  0  0  0  0  0  0  0
    3.9800   -0.2142    0.1077 O   0  0  0  0  0  0  0  0  0  0  0  0
    3.0183    0.5177   -0.6192 C   0  0  0  0  0  0  0  0  0  0  0  0
    1.7010   -0.1403   -0.4105 C   0  0  0  0  0  0  0  0  0  0  0  0
    1.5733   -1.1735    0.3130 O   0  0  0  0  0  0  0  0  0  0  0  0
    0.5711    0.3860   -1.0225 O   0  0  0  0  0  0  0  0  0  0  0  0
   -0.6534   -0.2599   -0.8036 C   0  0  0  0  0  0  0  0  0  0  0  0
   -1.4366    0.1167    0.2501 C   0  0  0  0  0  0  0  0  0  0  0  0
   -2.6391   -0.5004    0.4848 C   0  0  0  0  0  0  0  0  0  0  0  0
   -3.0485   -1.5149   -0.3660 C   0  0  0  0  0  0  0  0  0  0  0  0
   -4.2378   -2.1888   -0.2073 O   0  0  0  0  0  0  0  0  0  0  0  0
   -5.1791   -1.9632    0.7964 C   0  0  0  0  0  0  0  0  0  0  0  0
   -5.7260   -0.5886    0.7986 C   0  0  0  0  0  0  0  0  0  0  0  0
   -6.6660   -0.2859    1.7651 C   0  0  0  0  0  0  0  0  0  0  0  0
   -7.2455    0.9787    1.8571 C   0  0  0  0  0  0  0  0  0  0  0  0
   -6.8539    1.9224    0.9546 C   0  0  0  0  0  0  0  0  0  0  0  0
   -5.9180    1.6587   -0.0252 C   0  0  0  0  0  0  0  0  0  0  0  0
   -5.3500    0.3861   -0.1000 C   0  0  0  0  0  0  0  0  0  0  0  0
   -2.2443   -1.8824   -1.4259 C   0  0  0  0  0  0  0  0  0  0  0  0
   -1.0345   -1.2661   -1.6673 C   0  0  0  0  0  0  0  0  0  0  0  0
    5.7333    1.2781   -0.6174 C   0  0  0  0  0  0  0  0  0  0  0  0
  1  2  1  0
  2  3  2  0
  3  4  1  0
  4  5  2  0
  5  6  1  0
  6  7  1  0
  7  8  1  0
  8  9  1  0
  9 10  2  0
  9 11  1  0
 11 12  1  0
 12 13  2  0
 13 14  1  0
 14 15  2  0
 15 16  1  0
 16 17  1  0
 17 18  1  0
 18 19  2  0
 19 20  1  0
 20 21  2  0
 21 22  1  0
 22 23  2  0
 15 24  1  0
 24 25  2  0
  6 26  2  0
 26  2  1  0
 25 12  1  0
 23 18  1  0
M  END
>  <zinc_id>  (75) 
ZINC000000148541

>  <smiles>  (75) 
Cc1cccc(OCC(=O)Oc2ccc(OCc3ccccc3)cc2)c1

$$$$

     RDKit          3D

 15 15  0  0  0  0  0  0  0  0999 V2000
    1.1492    3.1608   -0.5596 C   0  0  0  0  0  0  0  0  0  0  0  0
    1.2878    1.8696    0.0167 O   0  0  0  0  0  0  0  0  0  0  0  0
    0.1999    0.9992   -0.0019 C   0  0  0  0  0  0  0  0  0  0  0  0
   -1.0042    1.3701   -0.5686 C   0  0  0  0  0  0  0  0  0  0  0  0
   -2.0847    0.5129   -0.5900 C   0  0  0  0  0  0  0  0  0  0  0  0
   -3.3704    0.8996   -1.1913 C   0  0  0  0  0  0  0  0  0  0  0  0
   -4.3045    0.0584   -1.1689 O   0  0  0  0  0  0  0  0  0  0  0  0
   -1.8962   -0.7265   -0.0177 C   0  0  0  0  0  0  0  0  0  0  0  0
   -0.6933   -1.0947    0.5475 C   0  0  0  0  0  0  0  0  0  0  0  0
   -0.4689   -2.8162    1.3295 Br  0  0  0  0  0  0  0  0  0  0  0  0
    0.3916   -0.2413    0.5720 C   0  0  0  0  0  0  0  0  0  0  0  0
    1.5856   -0.6375    1.1456 O   0  0  0  0  0  0  0  0  0  0  0  0
    2.5462   -1.2873    0.2990 C   0  0  0  0  0  0  0  0  0  0  0  0
    3.7840   -1.6516    1.0769 C   0  0  0  0  0  0  0  0  0  0  0  0
    2.8778   -0.4154   -0.8893 C   0  0  0  0  0  0  0  0  0  0  0  0
  1  2  1  0
  2  3  1  0
  3  4  2  0
  4  5  1  0
  5  6  1  0
  6  7  2  0
  5  8  2  0
  8  9  1  0
  9 10  1  0
  9 11  2  0
 11 12  1  0
 12 13  1  0
 13 14  1  0
 13 15  1  0
 11  3  1  0
M  END
>  <zinc_id>  (76) 
ZINC000000151852

>  <smiles>  (76) 
COc1cc(C=O)cc(Br)c1OC(C)C

$$$$

     RDKit          3D

 20 22  0  0  0  0  0  0  0  0999 V2000
    1.7850   -1.8973   -1.7738 O   0  0  0  0  0  0  0  0  0  0  0  0
    1.1990   -1.1465   -0.5832 S   0  0  0  0  0  0  0  0  0  0  0  0
    0.8146   -2.0791    0.4925 O   0  0  0  0  0  0  0  0  0  0  0  0
   -0.0165   -0.1371   -1.1940 N   0  0  0  0  0  0  0  0  0  0  0  0
   -0.5676    0.7618   -0.0169 C   0  0  1  0  0  0  0  0  0  0  0  0
   -1.3635    1.7906   -1.1127 C   0  0  0  0  0  0  0  0  0  0  0  0
   -2.0494    2.7104   -0.0921 C   0  0  0  0  0  0  0  0  0  0  0  0
   -3.3618    1.9739    0.2131 C   0  0  0  0  0  0  0  0  0  0  0  0
   -3.0890    0.5160    0.2981 C   0  0  0  0  0  0  0  0  0  0  0  0
   -4.2030   -0.2971    0.4944 C   0  0  0  0  0  0  0  0  0  0  0  0
   -4.0832   -1.6699    0.5902 C   0  0  0  0  0  0  0  0  0  0  0  0
   -2.8496   -2.3070    0.4959 C   0  0  0  0  0  0  0  0  0  0  0  0
   -1.7665   -1.4391    0.2988 C   0  0  0  0  0  0  0  0  0  0  0  0
   -1.9060   -0.0974    0.2078 C   0  0  0  0  0  0  0  0  0  0  0  0
    2.5527   -0.1886    0.0529 C   0  0  0  0  0  0  0  0  0  0  0  0
    2.5218    0.1807    1.3796 C   0  0  0  0  0  0  0  0  0  0  0  0
    3.5437    0.9278    1.9388 C   0  0  0  0  0  0  0  0  0  0  0  0
    4.6063    1.2948    1.1154 C   0  0  0  0  0  0  0  0  0  0  0  0
    4.6406    0.9288   -0.2066 C   0  0  0  0  0  0  0  0  0  0  0  0
    3.5925    0.1742   -0.7404 C   0  0  0  0  0  0  0  0  0  0  0  0
  1  2  2  0
  2  3  2  0
  2  4  1  0
  5  4  1  6
  5  6  1  0
  6  7  1  0
  7  8  1  0
  8  9  1  0
  9 10  2  0
 10 11  1  0
 11 12  2  0
 12 13  1  0
 13 14  2  0
  2 15  1  0
 15 16  2  0
 16 17  1  0
 17 18  2  0
 18 19  1  0
 19 20  2  0
 14  5  1  0
 20 15  1  0
 14  9  1  0
M  END
>  <zinc_id>  (77) 
ZINC000000152652

>  <smiles>  (77) 
O=S(=O)(N[C@H]1CCCc2ccccc21)c1ccccc1

$$$$

     RDKit          3D

 23 24  0  0  0  0  0  0  0  0999 V2000
   -3.8436    2.3335   -2.2269 C   0  0  0  0  0  0  0  0  0  0  0  0
   -3.6203    2.0998   -0.8623 O   0  0  0  0  0  0  0  0  0  0  0  0
   -2.7298    1.1269   -0.4305 C   0  0  0  0  0  0  0  0  0  0  0  0
   -2.0346    0.3573   -1.3314 C   0  0  0  0  0  0  0  0  0  0  0  0
   -1.1433   -0.6164   -0.9069 C   0  0  0  0  0  0  0  0  0  0  0  0
   -0.9951   -0.7682    0.3974 C   0  0  0  0  0  0  0  0  0  0  0  0
   -1.6626   -0.0287    1.3341 C   0  0  0  0  0  0  0  0  0  0  0  0
   -2.5511    0.9420    0.9191 C   0  0  0  0  0  0  0  0  0  0  0  0
   -3.2151    1.6778    1.8732 O   0  0  0  0  0  0  0  0  0  0  0  0
   -3.0175    1.4723    3.2430 C   0  0  0  0  0  0  0  0  0  0  0  0
    0.0161   -1.8723    1.0091 C   0  0  1  0  0  0  0  0  0  0  0  0
   -0.8750   -3.1796    0.4447 C   0  0  0  0  0  0  0  0  0  0  0  0
    1.0178   -1.8166   -0.2049 N   0  0  0  0  0  0  0  0  0  0  0  0
    2.2919   -1.3887    0.1982 C   0  0  0  0  0  0  0  0  0  0  0  0
    3.2048   -1.2988   -0.6943 O   0  0  0  0  0  0  0  0  0  0  0  0
    2.6489   -1.0410    1.5861 C   0  0  0  0  0  0  0  0  0  0  0  0
    3.7819   -0.0910    1.6408 C   0  0  0  0  0  0  0  0  0  0  0  0
    3.5085    1.2161    1.0763 C   0  0  0  0  0  0  0  0  0  0  0  0
    3.1111    1.3993   -0.3014 C   0  0  0  0  0  0  0  0  0  0  0  0
    1.8784    1.4047   -0.6385 O   0  0  0  0  0  0  0  0  0  0  0  0
    4.0298    1.5785   -1.3218 O   0  0  0  0  0  0  0  0  0  0  0  0
    0.6740   -2.1491   -1.4957 C   0  0  0  0  0  0  0  0  0  0  0  0
   -0.4753   -1.3578   -2.0003 C   0  0  0  0  0  0  0  0  0  0  0  0
  1  2  1  0
  2  3  1  0
  3  4  2  0
  4  5  1  0
  5  6  2  0
  6  7  1  0
  7  8  2  0
  8  9  1  0
  9 10  1  0
  6 11  1  0
 11 12  1  6
 11 13  1  0
 13 14  1  0
 14 15  2  0
 14 16  1  0
 16 17  1  0
 17 18  1  0
 18 19  1  0
 19 20  2  0
 19 21  1  0
 13 22  1  0
 22 23  1  0
  8  3  1  0
 23  5  1  0
M  END
>  <zinc_id>  (78) 
ZINC000000153185

>  <smiles>  (78) 
COc1cc2c(cc1OC)[C@@H](C)N(C(=O)CCCC(=O)O)CC2

$$$$

     RDKit          3D

  9  9  0  0  0  0  0  0  0  0999 V2000
   -2.4395   -1.1575    0.6523 C   0  0  0  0  0  0  0  0  0  0  0  0
   -1.1708   -0.4756    0.2522 C   0  0  0  0  0  0  0  0  0  0  0  0
    0.1278   -0.8014    0.6226 C   0  0  0  0  0  0  0  0  0  0  0  0
    0.9741    0.1029    0.0133 C   0  0  0  0  0  0  0  0  0  0  0  0
    2.4303    0.1493    0.1149 C   0  0  0  0  0  0  0  0  0  0  0  0
    3.1057   -0.6445    0.7833 O   0  0  0  0  0  0  0  0  0  0  0  0
    0.2310    0.9083   -0.6703 O   0  0  0  0  0  0  0  0  0  0  0  0
   -1.0420    0.6180   -0.5689 C   0  0  0  0  0  0  0  0  0  0  0  0
   -2.2164    1.3005   -1.1994 C   0  0  0  0  0  0  0  0  0  0  0  0
  1  2  1  0
  2  3  1  0
  3  4  2  0
  4  5  1  0
  5  6  2  0
  4  7  1  0
  7  8  1  0
  8  9  1  0
  8  2  2  0
M  END
>  <zinc_id>  (79) 
ZINC000000153224

>  <smiles>  (79) 
Cc1cc(C=O)oc1C

$$$$

     RDKit          3D

 18 19  0  0  0  0  0  0  0  0999 V2000
    6.5401   -0.4479   -0.4244 C   0  0  0  0  0  0  0  0  0  0  0  0
    5.0598   -0.4659   -0.4988 C   0  0  0  0  0  0  0  0  0  0  0  0
    4.4892   -1.1133   -1.4006 O   0  0  0  0  0  0  0  0  0  0  0  0
    4.2724    0.2408    0.4383 N   0  0  0  0  0  0  0  0  0  0  0  0
    2.8627    0.2674    0.4272 C   0  0  0  0  0  0  0  0  0  0  0  0
    2.1261   -0.4242   -0.5405 C   0  0  0  0  0  0  0  0  0  0  0  0
    0.7293   -0.3566   -0.4953 C   0  0  0  0  0  0  0  0  0  0  0  0
    0.0934    0.3772    0.4838 C   0  0  0  0  0  0  0  0  0  0  0  0
   -1.3213    0.4873    0.5865 N   0  0  0  0  0  0  0  0  0  0  0  0
   -2.2096   -0.1495   -0.3116 C   0  0  0  0  0  0  0  0  0  0  0  0
   -1.7161   -0.8366   -1.2317 O   0  0  0  0  0  0  0  0  0  0  0  0
   -3.6694   -0.0168   -0.1798 C   0  0  0  0  0  0  0  0  0  0  0  0
   -4.5922   -0.5966   -1.0012 C   0  0  0  0  0  0  0  0  0  0  0  0
   -5.8414   -0.2264   -0.5385 C   0  0  0  0  0  0  0  0  0  0  0  0
   -5.6044    0.5770    0.5648 C   0  0  0  0  0  0  0  0  0  0  0  0
   -4.3179    0.6677    0.7318 O   0  0  0  0  0  0  0  0  0  0  0  0
    0.8713    1.0378    1.4107 C   0  0  0  0  0  0  0  0  0  0  0  0
    2.2280    0.9785    1.3754 N   0  0  0  0  0  0  0  0  0  0  0  0
  1  2  1  0
  2  3  2  0
  2  4  1  0
  4  5  1  0
  5  6  2  0
  6  7  1  0
  7  8  2  0
  8  9  1  0
  9 10  1  0
 10 11  2  0
 10 12  1  0
 12 13  2  0
 13 14  1  0
 14 15  2  0
 15 16  1  0
  8 17  1  0
 17 18  2  0
 18  5  1  0
 16 12  1  0
M  END
>  <zinc_id>  (80) 
ZINC000000153559

>  <smiles>  (80) 
CC(=O)Nc1ccc(NC(=O)c2ccco2)cn1

$$$$

     RDKit          3D

 23 26  0  0  0  0  0  0  0  0999 V2000
   -0.1135   -1.2098    0.8164 O   0  0  0  0  0  0  0  0  0  0  0  0
   -0.3953   -1.3407   -0.4088 C   0  0  0  0  0  0  0  0  0  0  0  0
    0.5562   -2.0112   -1.2254 N   0  0  0  0  0  0  0  0  0  0  0  0
    1.7891   -2.4996   -0.6095 C   0  0  0  0  0  0  0  0  0  0  0  0
    2.7381   -1.3870   -0.3673 C   0  0  0  0  0  0  0  0  0  0  0  0
    3.1052   -0.5205   -1.4021 C   0  0  0  0  0  0  0  0  0  0  0  0
    3.9873    0.5097   -1.1713 C   0  0  0  0  0  0  0  0  0  0  0  0
    4.5598    0.7545    0.0695 C   0  0  0  0  0  0  0  0  0  0  0  0
    4.1943   -0.1106    1.1041 C   0  0  0  0  0  0  0  0  0  0  0  0
    3.3105   -1.1345    0.8556 C   0  0  0  0  0  0  0  0  0  0  0  0
    4.9040    0.3544    2.2256 O   0  0  0  0  0  0  0  0  0  0  0  0
    5.9523    1.2121    1.8124 C   0  0  0  0  0  0  0  0  0  0  0  0
    5.4444    1.6793    0.5785 O   0  0  0  0  0  0  0  0  0  0  0  0
   -1.6063   -0.8282   -0.8859 N   0  0  0  0  0  0  0  0  0  0  0  0
   -2.5631   -0.1437   -0.0160 C   0  0  0  0  0  0  0  0  0  0  0  0
   -2.2741   -0.0219    1.3152 C   0  0  0  0  0  0  0  0  0  0  0  0
   -3.6128    0.8104    1.9422 S   0  0  0  0  0  0  0  0  0  0  0  0
   -4.5151    0.9903    0.5112 C   0  0  0  0  0  0  0  0  0  0  0  0
   -5.7544    1.5777    0.1930 C   0  0  0  0  0  0  0  0  0  0  0  0
   -6.2553    1.5772   -1.1010 C   0  0  0  0  0  0  0  0  0  0  0  0
   -5.4523    0.9639   -2.0351 C   0  0  0  0  0  0  0  0  0  0  0  0
   -4.2508    0.3854   -1.7662 C   0  0  0  0  0  0  0  0  0  0  0  0
   -3.7481    0.3925   -0.4351 C   0  0  0  0  0  0  0  0  0  0  0  0
  1  2  2  0
  2  3  1  0
  3  4  1  0
  4  5  1  0
  5  6  2  0
  6  7  1  0
  7  8  2  0
  8  9  1  0
  9 10  2  0
  9 11  1  0
 11 12  1  0
 12 13  1  0
  2 14  1  0
 14 15  1  0
 15 16  2  0
 16 17  1  0
 17 18  1  0
 18 19  2  0
 19 20  1  0
 20 21  2  0
 21 22  1  0
 22 23  2  0
 10  5  1  0
 23 15  1  0
 13  8  1  0
 23 18  1  0
M  END
>  <zinc_id>  (81) 
ZINC000000154199

>  <smiles>  (81) 
O=C(NCc1ccc2c(c1)OCO2)Nc1csc2ccccc12

$$$$

     RDKit          3D

 24 26  0  0  0  0  0  0  0  0999 V2000
    7.2852   -1.7419    1.1599 C   0  0  0  0  0  0  0  0  0  0  0  0
    6.1457   -0.9306    0.6455 C   0  0  0  0  0  0  0  0  0  0  0  0
    6.3939    0.2415   -0.0581 C   0  0  0  0  0  0  0  0  0  0  0  0
    5.3794    1.0275   -0.5547 C   0  0  0  0  0  0  0  0  0  0  0  0
    5.5880    2.2785   -1.3069 C   0  0  0  0  0  0  0  0  0  0  0  0
    4.0752    0.6003   -0.3235 C   0  0  0  0  0  0  0  0  0  0  0  0
    3.8074   -0.5494    0.3662 C   0  0  0  0  0  0  0  0  0  0  0  0
    2.4576   -0.9260    0.5658 N   0  0  0  0  0  0  0  0  0  0  0  0
    1.3866   -0.1364    0.0660 C   0  0  0  0  0  0  0  0  0  0  0  0
    1.5702    0.9191   -0.5685 O   0  0  0  0  0  0  0  0  0  0  0  0
    0.0812   -0.5574    0.2934 N   0  0  0  0  0  0  0  0  0  0  0  0
   -1.1405   -0.0202   -0.0570 C   0  0  0  0  0  0  0  0  0  0  0  0
   -2.3425   -0.6539    0.3012 C   0  0  0  0  0  0  0  0  0  0  0  0
   -3.3915    0.0738   -0.1607 C   0  0  0  0  0  0  0  0  0  0  0  0
   -4.8236   -0.1985   -0.0259 C   0  0  0  0  0  0  0  0  0  0  0  0
   -5.2582   -1.3186    0.6424 C   0  0  0  0  0  0  0  0  0  0  0  0
   -6.6314   -1.5291    0.7411 C   0  0  0  0  0  0  0  0  0  0  0  0
   -7.5443   -0.6554    0.1937 C   0  0  0  0  0  0  0  0  0  0  0  0
   -7.1030    0.4653   -0.4748 C   0  0  0  0  0  0  0  0  0  0  0  0
   -5.7310    0.6799   -0.5760 C   0  0  0  0  0  0  0  0  0  0  0  0
   -2.8491    1.1293   -0.7877 N   0  0  0  0  0  0  0  0  0  0  0  0
   -1.5081    1.0614   -0.7187 N   0  0  0  0  0  0  0  0  0  0  0  0
   -0.6651    2.0615   -1.3059 C   0  0  0  0  0  0  0  0  0  0  0  0
    4.8179   -1.3206    0.8537 C   0  0  0  0  0  0  0  0  0  0  0  0
  1  2  1  0
  2  3  2  0
  3  4  1  0
  4  5  1  0
  4  6  2  0
  6  7  1  0
  7  8  1  0
  8  9  1  0
  9 10  2  0
  9 11  1  0
 11 12  1  0
 12 13  2  0
 13 14  1  0
 14 15  1  0
 15 16  2  0
 16 17  1  0
 17 18  2  0
 18 19  1  0
 19 20  2  0
 14 21  2  0
 21 22  1  0
 22 23  1  0
  7 24  2  0
 24  2  1  0
 22 12  1  0
 20 15  1  0
M  END
>  <zinc_id>  (82) 
ZINC000000157323

>  <smiles>  (82) 
Cc1cc(C)cc(NC(=O)Nc2cc(-c3ccccc3)nn2C)c1

$$$$

     RDKit          3D

 12 13  0  0  0  0  0  0  0  0999 V2000
    3.5021   -0.2520    1.3613 Cl  0  0  0  0  0  0  0  0  0  0  0  0
    2.0999   -0.2479    0.1901 C   0  0  0  0  0  0  0  0  0  0  0  0
    1.3436   -1.6565   -0.2246 Cl  0  0  0  0  0  0  0  0  0  0  0  0
    2.7034    0.6824   -1.0564 C   0  0  0  0  0  0  0  0  0  0  0  0
    1.6072    1.2695    0.0162 C   0  0  1  0  0  0  0  0  0  0  0  0
    0.3238    1.2641   -0.8885 C   0  0  0  0  0  0  0  0  0  0  0  0
   -0.8188    0.5634   -0.3713 C   0  0  0  0  0  0  0  0  0  0  0  0
   -1.1166   -0.6980   -0.8114 C   0  0  0  0  0  0  0  0  0  0  0  0
   -2.1747   -1.4368   -0.3804 C   0  0  0  0  0  0  0  0  0  0  0  0
   -3.0315   -0.9226    0.5613 C   0  0  0  0  0  0  0  0  0  0  0  0
   -2.7516    0.3445    1.0182 C   0  0  0  0  0  0  0  0  0  0  0  0
   -1.6868    1.0898    0.5855 C   0  0  0  0  0  0  0  0  0  0  0  0
  1  2  1  0
  2  3  1  0
  2  4  1  0
  4  5  1  0
  5  6  1  6
  6  7  1  0
  7  8  2  0
  8  9  1  0
  9 10  2  0
 10 11  1  0
 11 12  2  0
  5  2  1  0
 12  7  1  0
M  END
>  <zinc_id>  (83) 
ZINC000000164086

>  <smiles>  (83) 
ClC1(Cl)C[C@H]1Cc1ccccc1

$$$$

     RDKit          3D

 24 27  0  0  0  0  0  0  0  0999 V2000
    1.6707   -1.2071   -0.6251 O   0  0  0  0  0  0  0  0  0  0  0  0
    1.5580    0.0024   -0.2615 C   0  0  0  0  0  0  0  0  0  0  0  0
    2.7308    0.6960    0.0908 N   0  0  0  0  0  0  0  0  0  0  0  0
    4.0139    0.0393    0.0352 C   0  0  0  0  0  0  0  0  0  0  0  0
    4.1389   -1.2759   -0.3600 C   0  0  0  0  0  0  0  0  0  0  0  0
    5.4013   -1.8553   -0.3938 C   0  0  0  0  0  0  0  0  0  0  0  0
    6.5235   -1.1300   -0.0375 C   0  0  0  0  0  0  0  0  0  0  0  0
    6.4085    0.1862    0.3591 C   0  0  0  0  0  0  0  0  0  0  0  0
    5.1469    0.7437    0.3863 C   0  0  0  0  0  0  0  0  0  0  0  0
    0.2557    0.5447   -0.2438 N   0  0  0  0  0  0  0  0  0  0  0  0
   -0.8660   -0.2428   -0.6193 C   0  0  0  0  0  0  0  0  0  0  0  0
   -0.9151   -1.5575   -1.0345 C   0  0  0  0  0  0  0  0  0  0  0  0
   -2.2407   -1.8234   -1.2713 C   0  0  0  0  0  0  0  0  0  0  0  0
   -2.8194   -3.1189   -1.7420 C   0  0  0  0  0  0  0  0  0  0  0  0
   -4.0152   -3.6016   -0.9055 C   0  0  0  0  0  0  0  0  0  0  0  0
   -4.2092   -3.0933   -2.2705 C   0  0  0  0  0  0  0  0  0  0  0  0
   -2.9563   -0.7259   -1.0125 N   0  0  0  0  0  0  0  0  0  0  0  0
   -2.1328    0.2366   -0.6171 N   0  0  0  0  0  0  0  0  0  0  0  0
   -2.5420    1.5499   -0.2556 C   0  0  0  0  0  0  0  0  0  0  0  0
   -2.7343    2.5166   -1.2200 C   0  0  0  0  0  0  0  0  0  0  0  0
   -3.1307    3.7979   -0.9003 C   0  0  0  0  0  0  0  0  0  0  0  0
   -3.3545    4.1743    0.4064 C   0  0  0  0  0  0  0  0  0  0  0  0
   -3.1653    3.2155    1.3787 C   0  0  0  0  0  0  0  0  0  0  0  0
   -2.7669    1.9285    1.0549 C   0  0  0  0  0  0  0  0  0  0  0  0
  1  2  2  0
  2  3  1  0
  3  4  1  0
  4  5  2  0
  5  6  1  0
  6  7  2  0
  7  8  1  0
  8  9  2  0
  2 10  1  0
 10 11  1  0
 11 12  2  0
 12 13  1  0
 13 14  1  0
 14 15  1  0
 15 16  1  0
 13 17  2  0
 17 18  1  0
 18 19  1  0
 19 20  2  0
 20 21  1  0
 21 22  2  0
 22 23  1  0
 23 24  2  0
  9  4  1  0
 18 11  1  0
 24 19  1  0
 16 14  1  0
M  END
>  <zinc_id>  (84) 
ZINC000000165316

>  <smiles>  (84) 
O=C(Nc1ccccc1)Nc1cc(C2CC2)nn1-c1ccccc1

$$$$

     RDKit          3D

 14 14  0  0  0  0  0  0  0  0999 V2000
    0.0780   -2.9040    0.4177 N   0  0  0  0  0  0  0  0  0  0  0  0
    0.1408   -2.0026   -0.6703 N   0  0  0  0  0  0  0  0  0  0  0  0
   -0.3470   -0.6769   -0.3841 C   0  0  0  0  0  0  0  0  0  0  0  0
   -1.6623   -0.3788   -0.5827 C   0  0  0  0  0  0  0  0  0  0  0  0
   -2.7391   -1.6199   -1.1849 Cl  0  0  0  0  0  0  0  0  0  0  0  0
   -2.0967    0.8900   -0.3017 C   0  0  0  0  0  0  0  0  0  0  0  0
   -1.2633    1.8856    0.1749 C   0  0  0  0  0  0  0  0  0  0  0  0
   -1.8577    3.5088    0.5260 Cl  0  0  0  0  0  0  0  0  0  0  0  0
    0.0630    1.5594    0.3675 C   0  0  0  0  0  0  0  0  0  0  0  0
    0.5171    0.2876    0.0899 C   0  0  0  0  0  0  0  0  0  0  0  0
    1.9581   -0.0627    0.3004 C   0  0  0  0  0  0  0  0  0  0  0  0
    2.0199   -1.1006    1.2299 F   0  0  0  0  0  0  0  0  0  0  0  0
    2.5891   -0.4151   -0.8531 F   0  0  0  0  0  0  0  0  0  0  0  0
    2.6002    1.0291    0.8704 F   0  0  0  0  0  0  0  0  0  0  0  0
  1  2  1  0
  2  3  1  0
  3  4  2  0
  4  5  1  0
  4  6  1  0
  6  7  2  0
  7  8  1  0
  7  9  1  0
  9 10  2  0
 10 11  1  0
 11 12  1  0
 11 13  1  0
 11 14  1  0
 10  3  1  0
M  END
>  <zinc_id>  (85) 
ZINC000000165486

>  <smiles>  (85) 
NNc1c(Cl)cc(Cl)cc1C(F)(F)F

$$$$

     RDKit          3D

 12 12  0  0  0  0  0  0  0  0999 V2000
   -2.9194   -1.6787   -0.8124 C   0  0  0  0  0  0  0  0  0  0  0  0
   -2.4512   -1.2008    0.5543 C   0  0  0  0  0  0  0  0  0  0  0  0
   -1.6508    0.0004    0.3980 N   0  0  0  0  0  0  0  0  0  0  0  0
   -2.3181    1.2490    0.4317 C   0  0  0  0  0  0  0  0  0  0  0  0
   -1.7133    2.3478    0.3027 O   0  0  0  0  0  0  0  0  0  0  0  0
   -0.2498   -0.0134    0.2115 C   0  0  0  0  0  0  0  0  0  0  0  0
    0.2563   -0.7971   -0.8253 C   0  0  0  0  0  0  0  0  0  0  0  0
    1.6156   -0.8445   -1.0507 C   0  0  0  0  0  0  0  0  0  0  0  0
    2.5222   -0.1386   -0.2834 C   0  0  0  0  0  0  0  0  0  0  0  0
    4.2402   -0.2486   -0.6422 Cl  0  0  0  0  0  0  0  0  0  0  0  0
    2.0217    0.6345    0.7384 C   0  0  0  0  0  0  0  0  0  0  0  0
    0.6464    0.6901    0.9774 C   0  0  0  0  0  0  0  0  0  0  0  0
  1  2  1  0
  2  3  1  0
  3  4  1  0
  4  5  2  0
  3  6  1  0
  6  7  2  0
  7  8  1  0
  8  9  2  0
  9 10  1  0
  9 11  1  0
 11 12  2  0
 12  6  1  0
M  END
>  <zinc_id>  (86) 
ZINC000000166661

>  <smiles>  (86) 
CCN(C=O)c1ccc(Cl)cc1

$$$$

     RDKit          3D

 26 30  0  0  0  0  0  0  0  0999 V2000
   -3.7653   -2.0427   -1.6084 C   0  0  0  0  0  0  0  0  0  0  0  0
   -3.2907   -2.3005   -0.1821 C   0  0  0  0  0  0  0  0  0  0  0  0
   -4.1509   -3.4536    0.3450 C   0  0  0  0  0  0  0  0  0  0  0  0
   -3.6759   -1.0800    0.6330 C   0  0  0  0  0  0  0  0  0  0  0  0
   -2.7962    0.0329    0.2127 C   0  0  0  0  0  0  0  0  0  0  0  0
   -3.3112    1.1317   -0.0635 O   0  0  0  0  0  0  0  0  0  0  0  0
   -1.3700   -0.2189    0.1438 C   0  0  0  0  0  0  0  0  0  0  0  0
   -0.9209   -1.5047   -0.0392 C   0  0  0  0  0  0  0  0  0  0  0  0
    0.4410   -1.7909   -0.1321 C   0  0  0  0  0  0  0  0  0  0  0  0
    1.3448   -0.7534   -0.0365 C   0  0  0  0  0  0  0  0  0  0  0  0
    2.7435   -1.0379   -0.1311 N   0  0  0  0  0  0  0  0  0  0  0  0
    3.5808   -0.4636   -1.1595 C   0  0  0  0  0  0  0  0  0  0  0  0
    4.4534   -1.5172   -1.8171 C   0  0  0  0  0  0  0  0  0  0  0  0
    4.9035   -2.4685   -0.9120 O   0  0  0  0  0  0  0  0  0  0  0  0
    4.8515   -2.0070    0.4085 C   0  0  0  0  0  0  0  0  0  0  0  0
    3.3857   -1.9326    0.8226 C   0  0  0  0  0  0  0  0  0  0  0  0
    0.9126    0.5387    0.1474 C   0  0  0  0  0  0  0  0  0  0  0  0
    1.5669    1.6969    0.2723 N   0  0  0  0  0  0  0  0  0  0  0  0
    0.6988    2.7021    0.4403 C   0  0  0  0  0  0  0  0  0  0  0  0
    0.8145    4.0628    0.6196 C   0  0  0  0  0  0  0  0  0  0  0  0
   -0.2921    4.8656    0.7767 C   0  0  0  0  0  0  0  0  0  0  0  0
   -1.5528    4.2933    0.7541 C   0  0  0  0  0  0  0  0  0  0  0  0
   -1.6857    2.9447    0.5769 C   0  0  0  0  0  0  0  0  0  0  0  0
   -0.5796    2.1459    0.4201 C   0  0  0  0  0  0  0  0  0  0  0  0
   -0.4626    0.7958    0.2373 C   0  0  0  0  0  0  0  0  0  0  0  0
   -1.8429   -2.6385   -0.1406 C   0  0  0  0  0  0  0  0  0  0  0  0
  1  2  1  0
  2  3  1  0
  2  4  1  0
  4  5  1  0
  5  6  2  0
  5  7  1  0
  7  8  2  0
  8  9  1  0
  9 10  2  0
 10 11  1  0
 11 12  1  0
 12 13  1  0
 13 14  1  0
 14 15  1  0
 15 16  1  0
 10 17  1  0
 17 18  1  0
 18 19  1  0
 19 20  2  0
 20 21  1  0
 21 22  2  0
 22 23  1  0
 23 24  2  0
 24 25  1  0
  8 26  1  0
 26  2  1  0
 25  7  1  0
 16 11  1  0
 25 17  2  0
 24 19  1  0
M  END
>  <zinc_id>  (87) 
ZINC000000168009

>  <smiles>  (87) 
CC1(C)CC(=O)c2c(cc(N3CCOCC3)c3[nH]c4ccccc4c23)C1

$$$$

     RDKit          3D

 16 16  0  0  0  0  0  0  0  0999 V2000
    3.2002    1.8196   -0.2610 C   0  0  0  0  0  0  0  0  0  0  0  0
    3.0927    0.3855   -0.7390 C   0  0  0  0  0  0  0  0  0  0  0  0
    4.0440   -0.5036    0.0415 C   0  0  0  0  0  0  0  0  0  0  0  0
    3.3930    0.2671   -2.2194 C   0  0  0  0  0  0  0  0  0  0  0  0
    1.7031   -0.0986   -0.4347 C   0  0  0  0  0  0  0  0  0  0  0  0
    1.0954   -1.0297   -1.2607 C   0  0  0  0  0  0  0  0  0  0  0  0
   -0.2007   -1.4213   -0.9066 C   0  0  0  0  0  0  0  0  0  0  0  0
   -0.8198   -0.9130    0.1876 C   0  0  0  0  0  0  0  0  0  0  0  0
   -2.2612   -1.3790    0.5740 C   0  0  2  0  0  0  0  0  0  0  0  0
   -2.8343   -1.3919   -0.9218 N   0  0  0  0  0  0  0  0  0  0  0  0
   -2.8442    0.1261    0.9480 C   0  0  0  0  0  0  0  0  0  0  0  0
   -2.7662    0.9789   -0.1982 C   0  0  0  0  0  0  0  0  0  0  0  0
   -1.7813    1.6483   -0.5490 O   0  0  0  0  0  0  0  0  0  0  0  0
   -3.9078    1.0819   -1.0212 O   0  0  0  0  0  0  0  0  0  0  0  0
   -0.2119   -0.0035    0.9868 C   0  0  0  0  0  0  0  0  0  0  0  0
    1.0991    0.4330    0.6808 C   0  0  0  0  0  0  0  0  0  0  0  0
  1  2  1  0
  2  3  1  0
  2  4  1  0
  2  5  1  0
  5  6  2  0
  6  7  1  0
  7  8  2  0
  8  9  1  0
  9 10  1  6
  9 11  1  0
 11 12  1  0
 12 13  2  0
 12 14  1  0
  8 15  1  0
 15 16  2  0
 16  5  1  0
M  END
>  <zinc_id>  (88) 
ZINC000000170337

>  <smiles>  (88) 
CC(C)(C)c1ccc([C@H](N)CC(=O)O)cc1

$$$$

     RDKit          3D

 22 23  0  0  0  0  0  0  0  0999 V2000
    5.4782   -1.9805   -1.0211 N   0  0  0  0  0  0  0  0  0  0  0  0
    4.1848   -2.2024    0.0965 S   0  0  0  0  0  0  0  0  0  0  0  0
    3.3346   -3.3391   -0.4488 O   0  0  0  0  0  0  0  0  0  0  0  0
    4.7537   -2.6504    1.3940 O   0  0  0  0  0  0  0  0  0  0  0  0
    3.2105   -0.7569    0.2481 C   0  0  0  0  0  0  0  0  0  0  0  0
    3.4820    0.2260    1.1776 C   0  0  0  0  0  0  0  0  0  0  0  0
    2.6995    1.3584    1.2793 C   0  0  0  0  0  0  0  0  0  0  0  0
    1.6095    1.5645    0.4593 C   0  0  0  0  0  0  0  0  0  0  0  0
    0.7619    2.7934    0.5711 C   0  0  0  0  0  0  0  0  0  0  0  0
   -0.3560    2.5780    1.5358 C   0  0  0  0  0  0  0  0  0  0  0  0
   -1.2464    1.5145    1.1933 N   0  0  0  0  0  0  0  0  0  0  0  0
   -2.0169    1.4202    0.0239 C   0  0  0  0  0  0  0  0  0  0  0  0
   -1.9313    2.3497   -0.8176 O   0  0  0  0  0  0  0  0  0  0  0  0
   -2.9102    0.3061   -0.2699 C   0  0  0  0  0  0  0  0  0  0  0  0
   -2.4568   -0.8038   -0.9511 C   0  0  0  0  0  0  0  0  0  0  0  0
   -3.3135   -1.8737   -1.2335 C   0  0  0  0  0  0  0  0  0  0  0  0
   -4.6286   -1.8430   -0.8381 C   0  0  0  0  0  0  0  0  0  0  0  0
   -5.0878   -0.7446   -0.1610 C   0  0  0  0  0  0  0  0  0  0  0  0
   -4.2332    0.3176    0.1182 C   0  0  0  0  0  0  0  0  0  0  0  0
   -4.7928    1.7377    0.9837 Cl  0  0  0  0  0  0  0  0  0  0  0  0
    1.3386    0.5813   -0.4699 C   0  0  0  0  0  0  0  0  0  0  0  0
    2.1202   -0.5532   -0.5739 C   0  0  0  0  0  0  0  0  0  0  0  0
  1  2  1  0
  2  3  2  0
  2  4  2  0
  2  5  1  0
  5  6  2  0
  6  7  1  0
  7  8  2  0
  8  9  1  0
  9 10  1  0
 10 11  1  0
 11 12  1  0
 12 13  2  0
 12 14  1  0
 14 15  2  0
 15 16  1  0
 16 17  2  0
 17 18  1  0
 18 19  2  0
 19 20  1  0
  8 21  1  0
 21 22  2  0
 22  5  1  0
 19 14  1  0
M  END
>  <zinc_id>  (89) 
ZINC000000172707

>  <smiles>  (89) 
NS(=O)(=O)c1ccc(CCNC(=O)c2ccccc2Cl)cc1

$$$$

     RDKit          3D

 20 22  0  0  0  0  0  0  0  0999 V2000
   -1.2287    0.0542   -2.2979 O   0  0  0  0  0  0  0  0  0  0  0  0
   -1.6515   -0.1813   -1.1289 C   0  0  0  0  0  0  0  0  0  0  0  0
   -3.0228   -0.1051   -0.6451 C   0  0  0  0  0  0  0  0  0  0  0  0
   -4.2203    0.2204   -1.2422 C   0  0  0  0  0  0  0  0  0  0  0  0
   -5.4117    0.2178   -0.5511 C   0  0  0  0  0  0  0  0  0  0  0  0
   -5.3959   -0.1235    0.7837 C   0  0  0  0  0  0  0  0  0  0  0  0
   -4.2034   -0.4467    1.3746 C   0  0  0  0  0  0  0  0  0  0  0  0
   -3.0065   -0.4445    0.6818 C   0  0  0  0  0  0  0  0  0  0  0  0
   -1.6211   -0.7452    1.0739 C   0  0  0  0  0  0  0  0  0  0  0  0
   -1.2468   -1.0915    2.2232 O   0  0  0  0  0  0  0  0  0  0  0  0
   -0.7830   -0.5758   -0.0722 N   0  0  0  0  0  0  0  0  0  0  0  0
    0.6540   -0.7764   -0.1041 C   0  0  0  0  0  0  0  0  0  0  0  0
    1.2643    0.4957    0.2245 N   0  0  0  0  0  0  0  0  0  0  0  0
    2.6601    0.6884    0.2911 C   0  0  0  0  0  0  0  0  0  0  0  0
    3.2139    1.9074    0.6055 C   0  0  0  0  0  0  0  0  0  0  0  0
    4.6050    2.0366    0.6561 C   0  0  0  0  0  0  0  0  0  0  0  0
    5.3949    0.9167    0.3840 C   0  0  0  0  0  0  0  0  0  0  0  0
    4.8502   -0.3045    0.0692 C   0  0  0  0  0  0  0  0  0  0  0  0
    5.6704   -1.3471   -0.1829 F   0  0  0  0  0  0  0  0  0  0  0  0
    3.4789   -0.3955    0.0285 C   0  0  0  0  0  0  0  0  0  0  0  0
  1  2  2  0
  2  3  1  0
  3  4  2  0
  4  5  1  0
  5  6  2  0
  6  7  1  0
  7  8  2  0
  8  9  1  0
  9 10  2  0
  9 11  1  0
 11 12  1  0
 12 13  1  0
 13 14  1  0
 14 15  2  0
 15 16  1  0
 16 17  2  0
 17 18  1  0
 18 19  1  0
 18 20  2  0
 11  2  1  0
 20 14  1  0
  8  3  1  0
M  END
>  <zinc_id>  (90) 
ZINC000000174801

>  <smiles>  (90) 
O=C1c2ccccc2C(=O)N1CNc1cccc(F)c1

$$$$

     RDKit          3D

 26 29  0  0  0  0  0  0  0  0999 V2000
    2.7223    0.2105    1.6809 O   0  0  0  0  0  0  0  0  0  0  0  0
    3.3874   -0.1452    0.6698 C   0  0  0  0  0  0  0  0  0  0  0  0
    2.6498   -0.4547   -0.5056 N   0  0  0  0  0  0  0  0  0  0  0  0
    1.2312   -0.3549   -0.4989 C   0  0  0  0  0  0  0  0  0  0  0  0
    0.4945   -0.6480   -1.6206 C   0  0  0  0  0  0  0  0  0  0  0  0
   -0.8873   -0.5630   -1.6542 C   0  0  0  0  0  0  0  0  0  0  0  0
   -1.5740   -0.1763   -0.5468 C   0  0  0  0  0  0  0  0  0  0  0  0
   -3.0379   -0.0684   -0.5243 C   0  0  0  0  0  0  0  0  0  0  0  0
   -3.7803    0.3057    0.5294 N   0  0  0  0  0  0  0  0  0  0  0  0
   -5.0966    0.2914    0.1864 C   0  0  0  0  0  0  0  0  0  0  0  0
   -6.2560    0.5829    0.8767 C   0  0  0  0  0  0  0  0  0  0  0  0
   -7.4526    0.4650    0.2230 C   0  0  0  0  0  0  0  0  0  0  0  0
   -7.4910    0.0603   -1.1058 C   0  0  0  0  0  0  0  0  0  0  0  0
   -6.3231   -0.2216   -1.7629 C   0  0  0  0  0  0  0  0  0  0  0  0
   -5.1020   -0.1145   -1.1388 C   0  0  0  0  0  0  0  0  0  0  0  0
   -3.8489   -0.3163   -1.5154 O   0  0  0  0  0  0  0  0  0  0  0  0
   -0.8477    0.1224    0.5909 C   0  0  0  0  0  0  0  0  0  0  0  0
   -1.5662    0.5196    1.7252 O   0  0  0  0  0  0  0  0  0  0  0  0
    0.5338    0.0379    0.6256 C   0  0  0  0  0  0  0  0  0  0  0  0
    4.8172   -0.2156    0.7616 C   0  0  0  0  0  0  0  0  0  0  0  0
    5.4584    0.0999    1.9350 C   0  0  0  0  0  0  0  0  0  0  0  0
    6.8390    0.0441    2.0632 C   0  0  0  0  0  0  0  0  0  0  0  0
    7.5899   -0.3363    0.9913 C   0  0  0  0  0  0  0  0  0  0  0  0
    6.9822   -0.6591   -0.1986 C   0  0  0  0  0  0  0  0  0  0  0  0
    5.5871   -0.5982   -0.3134 C   0  0  0  0  0  0  0  0  0  0  0  0
    4.9707   -0.9115   -1.4738 F   0  0  0  0  0  0  0  0  0  0  0  0
  1  2  2  0
  2  3  1  0
  3  4  1  0
  4  5  2  0
  5  6  1  0
  6  7  2  0
  7  8  1  0
  8  9  2  0
  9 10  1  0
 10 11  2  0
 11 12  1  0
 12 13  2  0
 13 14  1  0
 14 15  2  0
 15 16  1  0
  7 17  1  0
 17 18  1  0
 17 19  2  0
  2 20  1  0
 20 21  2  0
 21 22  1  0
 22 23  2  0
 23 24  1  0
 24 25  2  0
 25 26  1  0
 19  4  1  0
 25 20  1  0
 16  8  1  0
 15 10  1  0
M  END
>  <zinc_id>  (91) 
ZINC000000176007

>  <smiles>  (91) 
O=C(Nc1ccc(-c2nc3ccccc3o2)c(O)c1)c1ccccc1F

$$$$

     RDKit          3D

 25 27  0  0  0  0  0  0  0  0999 V2000
    7.4981    0.9258   -0.9007 C   0  0  0  0  0  0  0  0  0  0  0  0
    7.5358   -0.4261   -0.2373 C   0  0  0  0  0  0  0  0  0  0  0  0
    6.5216   -1.2510   -0.8225 O   0  0  0  0  0  0  0  0  0  0  0  0
    5.2033   -0.7969   -0.6896 C   0  0  0  0  0  0  0  0  0  0  0  0
    4.1626   -1.5351   -1.2480 C   0  0  0  0  0  0  0  0  0  0  0  0
    2.8510   -1.1113   -1.1393 C   0  0  0  0  0  0  0  0  0  0  0  0
    2.4971    0.0474   -0.4833 C   0  0  0  0  0  0  0  0  0  0  0  0
    1.1801    0.5119   -0.2785 N   0  0  0  0  0  0  0  0  0  0  0  0
    0.7184    1.3015    0.8296 C   0  0  0  0  0  0  0  0  0  0  0  0
    1.2447    2.2874    1.3220 O   0  0  0  0  0  0  0  0  0  0  0  0
   -0.5502    0.6144    1.1955 C   0  0  0  0  0  0  0  0  0  0  0  0
   -1.1941    0.8406   -0.3110 C   0  0  2  0  0  0  0  0  0  0  0  0
   -1.9241   -0.6158   -0.2905 N   0  0  0  0  0  0  0  0  0  0  0  0
   -2.6778   -0.5219    0.9032 C   0  0  0  0  0  0  0  0  0  0  0  0
   -4.1328   -0.4705    0.7668 C   0  0  0  0  0  0  0  0  0  0  0  0
   -4.8493   -0.3950   -0.4157 C   0  0  0  0  0  0  0  0  0  0  0  0
   -6.2360   -0.1954   -0.3996 C   0  0  0  0  0  0  0  0  0  0  0  0
   -6.9559   -0.0661    0.7791 C   0  0  0  0  0  0  0  0  0  0  0  0
   -8.2976    0.1802    0.8204 F   0  0  0  0  0  0  0  0  0  0  0  0
   -6.2043   -0.1538    1.9528 C   0  0  0  0  0  0  0  0  0  0  0  0
   -4.8538   -0.3461    1.9618 C   0  0  0  0  0  0  0  0  0  0  0  0
    0.0893    0.2700   -1.1159 C   0  0  0  0  0  0  0  0  0  0  0  0
   -0.0497   -0.2525   -2.2264 O   0  0  0  0  0  0  0  0  0  0  0  0
    3.5610    0.7647    0.0637 C   0  0  0  0  0  0  0  0  0  0  0  0
    4.8627    0.3547   -0.0367 C   0  0  0  0  0  0  0  0  0  0  0  0
  1  2  1  0
  2  3  1  0
  3  4  1  0
  4  5  2  0
  5  6  1  0
  6  7  2  0
  7  8  1  0
  8  9  1  0
  9 10  2  0
  9 11  1  0
 11 12  1  0
 12 13  1  1
 13 14  1  0
 14 15  1  0
 15 16  2  0
 16 17  1  0
 17 18  2  0
 18 19  1  0
 18 20  1  0
 20 21  2  0
 12 22  1  0
 22 23  2  0
  7 24  1  0
 24 25  2  0
 25  4  1  0
 22  8  1  0
 21 15  1  0
M  END
>  <zinc_id>  (92) 
ZINC000000181337

>  <smiles>  (92) 
CCOc1ccc(N2C(=O)C[C@H](NCc3ccc(F)cc3)C2=O)cc1

$$$$

     RDKit          3D

 22 24  0  0  0  0  0  0  0  0999 V2000
    6.6380   -1.2429    0.0238 C   0  0  0  0  0  0  0  0  0  0  0  0
    5.3079   -0.5912   -0.1118 C   0  0  0  0  0  0  0  0  0  0  0  0
    4.1951   -1.3460    0.2027 C   0  0  0  0  0  0  0  0  0  0  0  0
    2.9648   -0.7421    0.0769 C   0  0  0  0  0  0  0  0  0  0  0  0
    2.8188    0.5634   -0.3440 C   0  0  0  0  0  0  0  0  0  0  0  0
    1.4777    1.0881   -0.4371 N   0  0  0  0  0  0  0  0  0  0  0  0
    0.3465    0.3136   -0.1150 C   0  0  0  0  0  0  0  0  0  0  0  0
    0.5400   -0.8688    0.2628 O   0  0  0  0  0  0  0  0  0  0  0  0
   -0.9839    0.7669   -0.1852 N   0  0  0  0  0  0  0  0  0  0  0  0
   -2.0987   -0.0818    0.1604 C   0  0  0  0  0  0  0  0  0  0  0  0
   -1.8444   -1.3738    0.5706 C   0  0  0  0  0  0  0  0  0  0  0  0
   -2.8443   -2.2571    0.9208 C   0  0  0  0  0  0  0  0  0  0  0  0
   -4.1599   -1.8170    0.8541 C   0  0  0  0  0  0  0  0  0  0  0  0
   -4.4229   -0.5294    0.4459 C   0  0  0  0  0  0  0  0  0  0  0  0
   -5.7415   -0.1061    0.3849 C   0  0  0  0  0  0  0  0  0  0  0  0
   -5.9599    1.1828   -0.0264 C   0  0  0  0  0  0  0  0  0  0  0  0
   -4.9495    2.0417   -0.3692 C   0  0  0  0  0  0  0  0  0  0  0  0
   -3.6389    1.6309   -0.3118 C   0  0  0  0  0  0  0  0  0  0  0  0
   -3.3865    0.3442    0.0967 C   0  0  0  0  0  0  0  0  0  0  0  0
    3.9160    1.2998   -0.6515 C   0  0  0  0  0  0  0  0  0  0  0  0
    5.1818    0.7158   -0.5344 C   0  0  0  0  0  0  0  0  0  0  0  0
    6.6437    1.6034   -0.9132 Cl  0  0  0  0  0  0  0  0  0  0  0  0
  1  2  1  0
  2  3  2  0
  3  4  1  0
  4  5  2  0
  5  6  1  0
  6  7  1  0
  7  8  2  0
  7  9  1  0
  9 10  1  0
 10 11  2  0
 11 12  1  0
 12 13  2  0
 13 14  1  0
 14 15  2  0
 15 16  1  0
 16 17  2  0
 17 18  1  0
 18 19  2  0
  5 20  1  0
 20 21  2  0
 21 22  1  0
 21  2  1  0
 19 10  1  0
 19 14  1  0
M  END
>  <zinc_id>  (93) 
ZINC000000182226

>  <smiles>  (93) 
Cc1ccc(NC(=O)Nc2cccc3ccccc23)cc1Cl

$$$$

     RDKit          3D

 20 22  0  0  0  0  0  0  0  0999 V2000
    1.1650   -1.6231   -1.7748 O   0  0  0  0  0  0  0  0  0  0  0  0
    0.5405   -1.1371   -0.8370 C   0  0  0  0  0  0  0  0  0  0  0  0
   -0.9133   -1.0640   -0.8190 C   0  0  0  0  0  0  0  0  0  0  0  0
   -1.7983   -1.5014   -1.7936 C   0  0  0  0  0  0  0  0  0  0  0  0
   -3.0527   -1.2491   -1.3914 N   0  0  0  0  0  0  0  0  0  0  0  0
   -3.0497   -0.6581   -0.1825 C   0  0  0  0  0  0  0  0  0  0  0  0
   -4.0356   -0.1949    0.6755 C   0  0  0  0  0  0  0  0  0  0  0  0
   -3.7285    0.3830    1.8850 C   0  0  0  0  0  0  0  0  0  0  0  0
   -2.3949    0.4829    2.2100 C   0  0  0  0  0  0  0  0  0  0  0  0
   -1.4186    0.0366    1.3858 C   0  0  0  0  0  0  0  0  0  0  0  0
   -1.7298   -0.5435    0.1714 C   0  0  0  0  0  0  0  0  0  0  0  0
    1.2193   -0.5503    0.4320 C   0  0  1  0  0  0  0  0  0  0  0  0
    2.7508   -0.7456    0.0008 C   0  0  0  0  0  0  0  0  0  0  0  0
    3.5727    0.1345    0.8485 C   0  0  0  0  0  0  0  0  0  0  0  0
    3.0227    1.1548    1.4320 C   0  0  0  0  0  0  0  0  0  0  0  0
    1.6835    1.6334    1.4183 C   0  0  0  0  0  0  0  0  0  0  0  0
    0.9442    1.0804    0.0374 C   0  0  1  0  0  0  0  0  0  0  0  0
    2.1098    1.3938   -0.9532 C   0  0  0  0  0  0  0  0  0  0  0  0
    2.8393    2.3215   -0.6545 O   0  0  0  0  0  0  0  0  0  0  0  0
    2.2735    0.6461   -2.0906 O   0  0  0  0  0  0  0  0  0  0  0  0
  1  2  2  0
  2  3  1  0
  3  4  2  0
  4  5  1  0
  5  6  1  0
  6  7  2  0
  7  8  1  0
  8  9  2  0
  9 10  1  0
 10 11  2  0
 12  2  1  6
 12 13  1  0
 13 14  1  0
 14 15  2  0
 15 16  1  0
 16 17  1  0
 17 18  1  6
 18 19  2  0
 18 20  1  0
 11  3  1  0
 17 12  1  0
 11  6  1  0
M  END
>  <zinc_id>  (94) 
ZINC000000184602

>  <smiles>  (94) 
O=C(c1c[nH]c2ccccc12)[C@H]1CC=CC[C@H]1C(=O)O

$$$$

     RDKit          3D

 24 26  0  0  0  0  0  0  0  0999 V2000
    6.2151   -0.1931    3.1939 C   0  0  0  0  0  0  0  0  0  0  0  0
    5.2038   -0.2803    2.1005 C   0  0  0  0  0  0  0  0  0  0  0  0
    4.9504    0.8177    1.3074 C   0  0  0  0  0  0  0  0  0  0  0  0
    4.0199    0.7582    0.2918 C   0  0  0  0  0  0  0  0  0  0  0  0
    3.2955   -0.3831    0.0088 C   0  0  0  0  0  0  0  0  0  0  0  0
    2.1404   -0.4121   -1.2727 S   0  0  0  0  0  0  0  0  0  0  0  0
    2.1114   -1.7808   -1.8811 O   0  0  0  0  0  0  0  0  0  0  0  0
    2.5146    0.5475   -2.3637 O   0  0  0  0  0  0  0  0  0  0  0  0
    0.5421    0.0544   -0.7341 N   0  0  0  0  0  0  0  0  0  0  0  0
    0.1626   -0.9282    0.2610 C   0  0  0  0  0  0  0  0  0  0  0  0
   -1.2440   -1.3396   -0.0146 C   0  0  0  0  0  0  0  0  0  0  0  0
   -1.6656   -0.4286   -1.0312 N   0  0  0  0  0  0  0  0  0  0  0  0
   -2.8711    0.2018   -1.1264 C   0  0  0  0  0  0  0  0  0  0  0  0
   -3.1930    1.0150   -2.0701 O   0  0  0  0  0  0  0  0  0  0  0  0
   -3.9231   -0.0032   -0.1340 C   0  0  0  0  0  0  0  0  0  0  0  0
   -3.6793   -0.8588    0.9223 C   0  0  0  0  0  0  0  0  0  0  0  0
   -4.5838   -1.1247    1.9032 C   0  0  0  0  0  0  0  0  0  0  0  0
   -5.8215   -0.4871    1.8191 C   0  0  0  0  0  0  0  0  0  0  0  0
   -6.0693    0.3613    0.7758 C   0  0  0  0  0  0  0  0  0  0  0  0
   -5.1450    0.6229   -0.2122 C   0  0  0  0  0  0  0  0  0  0  0  0
   -0.4046   -0.3916   -1.9234 C   0  0  1  0  0  0  0  0  0  0  0  0
   -0.6098    1.1806   -2.4697 C   0  0  0  0  0  0  0  0  0  0  0  0
    3.5608   -1.4874    0.8182 C   0  0  0  0  0  0  0  0  0  0  0  0
    4.4936   -1.4166    1.8311 C   0  0  0  0  0  0  0  0  0  0  0  0
  1  2  1  0
  2  3  2  0
  3  4  1  0
  4  5  2  0
  5  6  1  0
  6  7  2  0
  6  8  2  0
  6  9  1  0
  9 10  1  0
 10 11  1  0
 11 12  1  0
 12 13  1  0
 13 14  2  0
 13 15  1  0
 15 16  2  0
 16 17  1  0
 17 18  2  0
 18 19  1  0
 19 20  2  0
 12 21  1  0
 21 22  1  6
  5 23  1  0
 23 24  2  0
 24  2  1  0
 21  9  1  0
 20 15  1  0
M  END
>  <zinc_id>  (95) 
ZINC000000189519

>  <smiles>  (95) 
Cc1ccc(S(=O)(=O)N2CCN(C(=O)c3ccccc3)[C@H]2C)cc1

$$$$

     RDKit          3D

 25 28  0  0  0  0  0  0  0  0999 V2000
    1.2815   -0.3545   -2.3794 O   0  0  0  0  0  0  0  0  0  0  0  0
    1.2453   -0.0839   -1.2020 C   0  0  0  0  0  0  0  0  0  0  0  0
    2.3433    0.6134   -0.5962 C   0  0  0  0  0  0  0  0  0  0  0  0
    2.5152    0.9066    0.7297 C   0  0  0  0  0  0  0  0  0  0  0  0
    3.5644    1.5673    1.2652 C   0  0  0  0  0  0  0  0  0  0  0  0
    4.5699    2.0041    0.4649 C   0  0  0  0  0  0  0  0  0  0  0  0
    4.4839    1.7542   -0.8897 C   0  0  0  0  0  0  0  0  0  0  0  0
    3.3988    1.0769   -1.4031 C   0  0  0  0  0  0  0  0  0  0  0  0
    0.0700   -0.4187   -0.2353 C   0  0  1  0  0  0  0  0  0  0  0  0
   -0.7067    1.0594   -0.5565 C   0  0  2  0  0  0  0  0  0  0  0  0
    0.0335    1.8796    0.6397 C   0  0  0  0  0  0  0  0  0  0  0  0
   -0.5763    3.2608    0.4460 C   0  0  0  0  0  0  0  0  0  0  0  0
   -2.0735    3.2271    0.5741 C   0  0  0  0  0  0  0  0  0  0  0  0
   -2.5966    1.9050    1.0409 C   0  0  0  0  0  0  0  0  0  0  0  0
   -1.9903    0.7502    0.3128 C   0  0  0  0  0  0  0  0  0  0  0  0
   -2.5230   -0.3720    0.4219 C   0  0  0  0  0  0  0  0  0  0  0  0
   -3.7676   -0.6502    1.2750 C   0  0  0  0  0  0  0  0  0  0  0  0
   -3.1376   -1.3920    2.4707 C   0  0  0  0  0  0  0  0  0  0  0  0
   -2.2611   -2.5143    2.0696 C   0  0  0  0  0  0  0  0  0  0  0  0
   -1.1977   -2.1939    1.0499 C   0  0  0  0  0  0  0  0  0  0  0  0
   -2.1127   -1.7205   -0.2212 C   0  0  2  0  0  0  0  0  0  0  0  0
   -0.8910   -1.2735   -1.2755 C   0  0  2  0  0  0  0  0  0  0  0  0
   -0.1623   -2.6635   -1.3058 C   0  0  0  0  0  0  0  0  0  0  0  0
   -0.6568   -3.7392   -1.0885 O   0  0  0  0  0  0  0  0  0  0  0  0
    1.1473   -2.6284   -1.6071 O   0  0  0  0  0  0  0  0  0  0  0  0
  1  2  2  0
  2  3  1  0
  3  4  2  0
  4  5  1  0
  5  6  2  0
  6  7  1  0
  7  8  2  0
  9  2  1  6
  9 10  1  0
 10 11  1  1
 11 12  1  0
 12 13  1  0
 13 14  1  0
 14 15  1  0
 15 16  2  0
 16 17  1  0
 17 18  1  0
 18 19  1  0
 19 20  1  0
 21 20  1  1
 21 22  1  0
 22 23  1  1
 23 24  2  0
 23 25  1  0
  8  3  1  0
 22  9  1  0
 15 10  1  0
 21 16  1  0
M  END
>  <zinc_id>  (96) 
ZINC000000193313

>  <smiles>  (96) 
O=C(c1ccccc1)[C@H]1[C@@H]2CCCCC2=C2CCCC[C@@H]2[C@@H]1C(=O)O

$$$$

     RDKit          3D

 16 17  0  0  0  0  0  0  0  0999 V2000
    0.3849   -0.4599   -1.0130 O   0  0  0  0  0  0  0  0  0  0  0  0
    0.3090   -0.0570    0.4320 S   0  0  0  0  0  0  0  0  0  0  0  0
   -0.0287   -1.3072    1.2104 O   0  0  0  0  0  0  0  0  0  0  0  0
   -0.9248    1.1548    0.6420 C   0  0  0  0  0  0  0  0  0  0  0  0
   -2.2584    0.6281    0.2797 C   0  0  0  0  0  0  0  0  0  0  0  0
   -2.6827    0.7608   -1.0196 C   0  0  0  0  0  0  0  0  0  0  0  0
   -3.8970    0.2890   -1.3802 C   0  0  0  0  0  0  0  0  0  0  0  0
   -4.7117   -0.3175   -0.4793 C   0  0  0  0  0  0  0  0  0  0  0  0
   -4.3298   -0.4730    0.8323 C   0  0  0  0  0  0  0  0  0  0  0  0
   -3.0752    0.0158    1.1999 C   0  0  0  0  0  0  0  0  0  0  0  0
    1.8914    0.5888    0.8685 C   0  0  0  0  0  0  0  0  0  0  0  0
    2.8688   -0.7138    0.5922 C   0  0  2  0  0  0  0  0  0  0  0  0
    4.2870    0.0524    1.0436 C   0  0  0  0  0  0  0  0  0  0  0  0
    3.8515   -0.0825   -0.5578 C   0  0  0  0  0  0  0  0  0  0  0  0
    4.8181   -1.4139   -1.2693 Cl  0  0  0  0  0  0  0  0  0  0  0  0
    3.4976    1.3350   -1.3663 Cl  0  0  0  0  0  0  0  0  0  0  0  0
  1  2  2  0
  2  3  2  0
  2  4  1  0
  4  5  1  0
  5  6  2  0
  6  7  1  0
  7  8  2  0
  8  9  1  0
  9 10  2  0
  2 11  1  0
 12 11  1  1
 12 13  1  0
 13 14  1  0
 14 15  1  0
 14 16  1  0
 10  5  1  0
 14 12  1  0
M  END
>  <zinc_id>  (97) 
ZINC000000194029

>  <smiles>  (97) 
O=S(=O)(Cc1ccccc1)C[C@@H]1CC1(Cl)Cl

$$$$

     RDKit          3D

 22 24  0  0  0  0  0  0  0  0999 V2000
   -2.6632   -3.6876    0.6965 C   0  0  0  0  0  0  0  0  0  0  0  0
   -2.5574   -2.3429    0.2686 O   0  0  0  0  0  0  0  0  0  0  0  0
   -1.7778   -1.3992    0.9051 C   0  0  0  0  0  0  0  0  0  0  0  0
   -1.1389   -1.7656    1.9083 O   0  0  0  0  0  0  0  0  0  0  0  0
   -1.6952    0.0092    0.4195 C   0  0  0  0  0  0  0  0  0  0  0  0
   -2.3351    0.4242   -0.5936 C   0  0  0  0  0  0  0  0  0  0  0  0
   -3.2033   -0.5298   -1.3400 C   0  0  0  0  0  0  0  0  0  0  0  0
   -2.3062    1.7487   -1.0095 N   0  0  0  0  0  0  0  0  0  0  0  0
   -1.5859    2.7306   -0.3566 C   0  0  0  0  0  0  0  0  0  0  0  0
   -1.5782    3.9309   -0.7642 O   0  0  0  0  0  0  0  0  0  0  0  0
   -0.9109    2.3066    0.7238 N   0  0  0  0  0  0  0  0  0  0  0  0
   -0.6934    0.9129    1.2606 C   0  0  2  0  0  0  0  0  0  0  0  0
    0.6385    0.5142    0.5415 C   0  0  0  0  0  0  0  0  0  0  0  0
    0.8198   -0.8118    0.2806 C   0  0  0  0  0  0  0  0  0  0  0  0
    1.9943   -1.2545   -0.3714 C   0  0  0  0  0  0  0  0  0  0  0  0
    2.9366   -0.3491   -0.7341 C   0  0  0  0  0  0  0  0  0  0  0  0
    2.7641    0.9816   -0.4770 C   0  0  0  0  0  0  0  0  0  0  0  0
    1.5951    1.3692    0.1654 C   0  0  0  0  0  0  0  0  0  0  0  0
    1.3829    3.0711    0.4987 Cl  0  0  0  0  0  0  0  0  0  0  0  0
    4.0220   -0.9993   -1.3677 O   0  0  0  0  0  0  0  0  0  0  0  0
    3.8272   -2.3621   -1.1939 C   0  0  0  0  0  0  0  0  0  0  0  0
    2.4652   -2.4974   -0.7684 O   0  0  0  0  0  0  0  0  0  0  0  0
  1  2  1  0
  2  3  1  0
  3  4  2  0
  3  5  1  0
  5  6  2  0
  6  7  1  0
  6  8  1  0
  8  9  1  0
  9 10  2  0
  9 11  1  0
 11 12  1  0
 12 13  1  6
 13 14  2  0
 14 15  1  0
 15 16  2  0
 16 17  1  0
 17 18  2  0
 18 19  1  0
 16 20  1  0
 20 21  1  0
 21 22  1  0
 12  5  1  0
 18 13  1  0
 22 15  1  0
M  END
>  <zinc_id>  (98) 
ZINC000000194963

>  <smiles>  (98) 
COC(=O)C1=C(C)NC(=O)N[C@@H]1c1cc2c(cc1Cl)OCO2

$$$$

     RDKit          3D

 19 21  0  0  0  0  0  0  0  0999 V2000
    4.7458    1.0240   -1.2308 C   0  0  0  0  0  0  0  0  0  0  0  0
    4.7405   -0.2270   -0.3844 C   0  0  0  0  0  0  0  0  0  0  0  0
    3.6892   -0.2247    0.5668 O   0  0  0  0  0  0  0  0  0  0  0  0
    2.3529   -0.1536    0.2371 C   0  0  0  0  0  0  0  0  0  0  0  0
    2.0428   -0.0865   -0.9794 O   0  0  0  0  0  0  0  0  0  0  0  0
    1.2854   -0.1552    1.2921 C   0  0  0  0  0  0  0  0  0  0  0  0
   -0.0226   -0.0744    0.7183 N   0  0  0  0  0  0  0  0  0  0  0  0
   -0.6345    1.0956    0.4789 C   0  0  0  0  0  0  0  0  0  0  0  0
   -1.8919    1.1844   -0.0724 C   0  0  0  0  0  0  0  0  0  0  0  0
   -2.5771    0.0336   -0.4037 C   0  0  0  0  0  0  0  0  0  0  0  0
   -3.7428    0.0850   -0.9156 N   0  0  0  0  0  0  0  0  0  0  0  0
   -1.9523   -1.1797   -0.1598 C   0  0  0  0  0  0  0  0  0  0  0  0
   -0.6784   -1.2097    0.4003 C   0  0  0  0  0  0  0  0  0  0  0  0
   -0.2430   -2.6392    0.5552 C   0  0  0  0  0  0  0  0  0  0  0  0
   -1.1610   -3.3980   -0.3820 C   0  0  0  0  0  0  0  0  0  0  0  0
   -2.4366   -2.5560   -0.4085 C   0  0  0  0  0  0  0  0  0  0  0  0
   -2.3126    2.5934   -0.2214 C   0  0  0  0  0  0  0  0  0  0  0  0
   -1.1060    3.4160    0.1591 C   0  0  0  0  0  0  0  0  0  0  0  0
   -0.0982    2.4722    0.7505 C   0  0  0  0  0  0  0  0  0  0  0  0
  1  2  1  0
  2  3  1  0
  3  4  1  0
  4  5  2  0
  4  6  1  0
  6  7  1  0
  7  8  1  0
  8  9  2  0
  9 10  1  0
 10 11  2  0
 10 12  1  0
 12 13  2  0
 13 14  1  0
 14 15  1  0
 15 16  1  0
  9 17  1  0
 17 18  1  0
 18 19  1  0
 13  7  1  0
 19  8  1  0
 16 12  1  0
M  END
>  <zinc_id>  (99) 
ZINC000000198621

>  <smiles>  (99) 
CCOC(=O)Cn1c2c(c(=N)c3c1CCC3)CCC2

$$$$

     RDKit          3D

 24 27  0  0  0  0  0  0  0  0999 V2000
   -0.9222   -0.2595    0.1964 O   0  0  0  0  0  0  0  0  0  0  0  0
   -0.1372    0.6799   -0.2460 C   0  0  0  0  0  0  0  0  0  0  0  0
   -0.6953    1.8014   -0.7835 C   0  0  0  0  0  0  0  0  0  0  0  0
   -1.9607    2.1283   -0.9469 C   0  0  0  0  0  0  0  0  0  0  0  0
   -3.0632    1.3671   -0.5912 C   0  0  0  0  0  0  0  0  0  0  0  0
   -3.4381    0.2915   -0.0814 C   0  0  0  0  0  0  0  0  0  0  0  0
   -4.7937   -0.1976    0.1432 C   0  0  0  0  0  0  0  0  0  0  0  0
   -5.9267    0.4765   -0.1847 C   0  0  0  0  0  0  0  0  0  0  0  0
   -7.1775   -0.0757    0.0706 C   0  0  0  0  0  0  0  0  0  0  0  0
   -7.3291   -1.3116    0.6581 C   0  0  0  0  0  0  0  0  0  0  0  0
   -6.1758   -1.9983    0.9921 C   0  0  0  0  0  0  0  0  0  0  0  0
   -4.9286   -1.4522    0.7397 C   0  0  0  0  0  0  0  0  0  0  0  0
    0.7248    2.7072   -1.2060 S   0  0  0  0  0  0  0  0  0  0  0  0
    1.9047    1.6001   -0.6716 C   0  0  0  0  0  0  0  0  0  0  0  0
    3.2441    1.3538   -0.5460 N   0  0  0  0  0  0  0  0  0  0  0  0
    3.3182    0.1418    0.0315 C   0  0  0  0  0  0  0  0  0  0  0  0
    4.5341   -0.5714    0.3787 C   0  0  0  0  0  0  0  0  0  0  0  0
    4.4725   -1.8028    0.9646 C   0  0  0  0  0  0  0  0  0  0  0  0
    5.6055   -2.5023    1.3047 C   0  0  0  0  0  0  0  0  0  0  0  0
    6.8323   -1.9587    1.0535 C   0  0  0  0  0  0  0  0  0  0  0  0
    6.8922   -0.7162    0.4622 C   0  0  0  0  0  0  0  0  0  0  0  0
    5.7551   -0.0061    0.1170 C   0  0  0  0  0  0  0  0  0  0  0  0
    2.0909   -0.2977    0.2332 N   0  0  0  0  0  0  0  0  0  0  0  0
    1.1736    0.6026   -0.2012 N   0  0  0  0  0  0  0  0  0  0  0  0
  1  2  2  0
  2  3  1  0
  3  4  2  0
  4  5  1  0
  5  6  2  0
  6  7  1  0
  7  8  2  0
  8  9  1  0
  9 10  2  0
 10 11  1  0
 11 12  2  0
  3 13  1  0
 13 14  1  0
 14 15  2  0
 15 16  1  0
 16 17  1  0
 17 18  2  0
 18 19  1  0
 19 20  2  0
 20 21  1  0
 21 22  2  0
 16 23  2  0
 23 24  1  0
 24  2  1  0
 12  7  1  0
 24 14  1  0
 22 17  1  0
M  END
>  <zinc_id>  (100) 
ZINC000000199641

>  <smiles>  (100) 
O=c1/c(=C\C=C\c2ccccc2)sc2nc(-c3ccccc3)nn12

$$$$
